_audit_creation_date      'May 6, 2024'
_audit_creation_method    'Draft CIF file generated with Atomsk'
 
_chemical_name_common             ?
_chemical_melting_point           ?
_chemical_formula_iupac           'Pb360 Ti360 O1080'
_chemical_formula_moiety          'Pb360 Ti360 O1080'
_chemical_formula_sum             'Pb360 Ti360 O1080'
_chemical_formula_weight          109103.040
_chemical_compound_source         ?
_chemical_absolute_configuration  ?
_exptl_crystal_description        'EDIT-ENTRY'
_diffrn_measurement_device_type   'EDIT-ENTRY'
 
_space_group_IT_number            1
_space_group_crystal_system       orthorhombic
_symmetry_space_group_name_Hall   'P 1'
_symmetry_space_group_name_H-M    'P 1'
 
loop_
_space_group_symop_operation_xyz
'+x,+y,+z'
 
_cell_length_a                    16.4143
_cell_length_b                    26.1151
_cell_length_c                    52.2302
_cell_angle_alpha                 90.0000
_cell_angle_beta                  90.0000
_cell_angle_gamma                 90.0000
_cell_volume                      22389.0543
 
loop_
 _atom_site_label
 _atom_site_type_symbol
 _atom_site_fract_x
 _atom_site_fract_y
 _atom_site_fract_z
 _atom_site_occupancy
 _atom_site_thermal_displace_type
 _atom_site_B_iso_or_equiv
Pb1  Pb  0.247630  0.000000  0.000000 1.000000 Biso 0.000000
Pb2  Pb  0.247630  0.200000  0.033335 1.000000 Biso 0.000000
Pb3  Pb  0.247630  0.066670  0.066665 1.000000 Biso 0.000000
Pb4  Pb  0.247630  0.266670  0.100000 1.000000 Biso 0.000000
Pb5  Pb  0.247630  0.133330  0.133335 1.000000 Biso 0.000000
Pb6  Pb  0.247630  1.000000  0.166665 1.000000 Biso 0.000000
Pb7  Pb  0.247630  0.200000  0.200000 1.000000 Biso 0.000000
Pb8  Pb  0.247630  0.066670  0.233335 1.000000 Biso 0.000000
Pb9  Pb  0.247630  0.266670  0.266665 1.000000 Biso 0.000000
Pb10  Pb  0.247630  0.133330  0.300000 1.000000 Biso 0.000000
Pb11  Pb  0.247630  0.000000  0.333335 1.000000 Biso 0.000000
Pb12  Pb  0.247630  0.200000  0.366665 1.000000 Biso 0.000000
Pb13  Pb  0.247630  0.066670  0.400000 1.000000 Biso 0.000000
Pb14  Pb  0.247630  0.266670  0.433335 1.000000 Biso 0.000000
Pb15  Pb  0.247630  0.133330  0.466665 1.000000 Biso 0.000000
Ti1  Ti  0.112770  0.100000  0.016665 1.000000 Biso 0.000000
Ti2  Ti  0.112770  0.300000  0.050000 1.000000 Biso 0.000000
Ti3  Ti  0.112770  0.166670  0.083335 1.000000 Biso 0.000000
Ti4  Ti  0.112770  0.033330  0.116665 1.000000 Biso 0.000000
Ti5  Ti  0.112770  0.233330  0.150000 1.000000 Biso 0.000000
Ti6  Ti  0.112770  0.100000  0.183335 1.000000 Biso 0.000000
Ti7  Ti  0.112770  0.300000  0.216665 1.000000 Biso 0.000000
Ti8  Ti  0.112770  0.166670  0.250000 1.000000 Biso 0.000000
Ti9  Ti  0.112770  0.033330  0.283335 1.000000 Biso 0.000000
Ti10  Ti  0.112770  0.233330  0.316665 1.000000 Biso 0.000000
Ti11  Ti  0.112770  0.100000  0.350000 1.000000 Biso 0.000000
Ti12  Ti  0.112770  0.300000  0.383335 1.000000 Biso 0.000000
Ti13  Ti  0.112770  0.166670  0.416665 1.000000 Biso 0.000000
Ti14  Ti  0.112770  0.033330  0.450000 1.000000 Biso 0.000000
Ti15  Ti  0.112770  0.233330  0.483335 1.000000 Biso 0.000000
O1  O  0.094600  0.266670  0.016665 1.000000 Biso 0.000000
O2  O  0.094600  0.133330  0.050000 1.000000 Biso 0.000000
O3  O  0.094600  1.000000  0.083335 1.000000 Biso 0.000000
O4  O  0.094600  0.200000  0.116665 1.000000 Biso 0.000000
O5  O  0.094600  0.066670  0.150000 1.000000 Biso 0.000000
O6  O  0.094600  0.266670  0.183335 1.000000 Biso 0.000000
O7  O  0.094600  0.133330  0.216665 1.000000 Biso 0.000000
O8  O  0.094600  0.000000  0.250000 1.000000 Biso 0.000000
O9  O  0.094600  0.200000  0.283335 1.000000 Biso 0.000000
O10  O  0.094600  0.066670  0.316665 1.000000 Biso 0.000000
O11  O  0.094600  0.266670  0.350000 1.000000 Biso 0.000000
O12  O  0.094600  0.133330  0.383335 1.000000 Biso 0.000000
O13  O  0.094600  0.000000  0.416665 1.000000 Biso 0.000000
O14  O  0.094600  0.200000  0.450000 1.000000 Biso 0.000000
O15  O  0.094600  0.066670  0.483335 1.000000 Biso 0.000000
O16  O  0.094600  0.166670  0.000000 1.000000 Biso 0.000000
O17  O  0.094600  0.033330  0.033335 1.000000 Biso 0.000000
O18  O  0.094600  0.233330  0.066665 1.000000 Biso 0.000000
O19  O  0.094600  0.100000  0.100000 1.000000 Biso 0.000000
O20  O  0.094600  0.300000  0.133335 1.000000 Biso 0.000000
O21  O  0.094600  0.166670  0.166665 1.000000 Biso 0.000000
O22  O  0.094600  0.033330  0.200000 1.000000 Biso 0.000000
O23  O  0.094600  0.233330  0.233335 1.000000 Biso 0.000000
O24  O  0.094600  0.100000  0.266665 1.000000 Biso 0.000000
O25  O  0.094600  0.300000  0.300000 1.000000 Biso 0.000000
O26  O  0.094600  0.166670  0.333335 1.000000 Biso 0.000000
O27  O  0.094600  0.033330  0.366665 1.000000 Biso 0.000000
O28  O  0.094600  0.233330  0.400000 1.000000 Biso 0.000000
O29  O  0.094600  0.100000  0.433335 1.000000 Biso 0.000000
O30  O  0.094600  0.300000  0.466665 1.000000 Biso 0.000000
O31  O  0.223430  0.100000  0.016665 1.000000 Biso 0.000000
O32  O  0.223430  0.300000  0.050000 1.000000 Biso 0.000000
O33  O  0.223430  0.166670  0.083335 1.000000 Biso 0.000000
O34  O  0.223430  0.033330  0.116665 1.000000 Biso 0.000000
O35  O  0.223430  0.233330  0.150000 1.000000 Biso 0.000000
O36  O  0.223430  0.100000  0.183335 1.000000 Biso 0.000000
O37  O  0.223430  0.300000  0.216665 1.000000 Biso 0.000000
O38  O  0.223430  0.166670  0.250000 1.000000 Biso 0.000000
O39  O  0.223430  0.033330  0.283335 1.000000 Biso 0.000000
O40  O  0.223430  0.233330  0.316665 1.000000 Biso 0.000000
O41  O  0.223430  0.100000  0.350000 1.000000 Biso 0.000000
O42  O  0.223430  0.300000  0.383335 1.000000 Biso 0.000000
O43  O  0.223430  0.166670  0.416665 1.000000 Biso 0.000000
O44  O  0.223430  0.033330  0.450000 1.000000 Biso 0.000000
O45  O  0.223430  0.233330  0.483335 1.000000 Biso 0.000000
Pb16  Pb  0.497630  0.000000  0.000000 1.000000 Biso 0.000000
Pb17  Pb  0.497630  0.200000  0.033335 1.000000 Biso 0.000000
Pb18  Pb  0.497630  0.066670  0.066665 1.000000 Biso 0.000000
Pb19  Pb  0.497630  0.266670  0.100000 1.000000 Biso 0.000000
Pb20  Pb  0.497630  0.133330  0.133335 1.000000 Biso 0.000000
Pb21  Pb  0.497630  1.000000  0.166665 1.000000 Biso 0.000000
Pb22  Pb  0.497630  0.200000  0.200000 1.000000 Biso 0.000000
Pb23  Pb  0.497630  0.066670  0.233335 1.000000 Biso 0.000000
Pb24  Pb  0.497630  0.266670  0.266665 1.000000 Biso 0.000000
Pb25  Pb  0.497630  0.133330  0.300000 1.000000 Biso 0.000000
Pb26  Pb  0.497630  0.000000  0.333335 1.000000 Biso 0.000000
Pb27  Pb  0.497630  0.200000  0.366665 1.000000 Biso 0.000000
Pb28  Pb  0.497630  0.066670  0.400000 1.000000 Biso 0.000000
Pb29  Pb  0.497630  0.266670  0.433335 1.000000 Biso 0.000000
Pb30  Pb  0.497630  0.133330  0.466665 1.000000 Biso 0.000000
Ti16  Ti  0.362770  0.100000  0.016665 1.000000 Biso 0.000000
Ti17  Ti  0.362770  0.300000  0.050000 1.000000 Biso 0.000000
Ti18  Ti  0.362770  0.166670  0.083335 1.000000 Biso 0.000000
Ti19  Ti  0.362770  0.033330  0.116665 1.000000 Biso 0.000000
Ti20  Ti  0.362770  0.233330  0.150000 1.000000 Biso 0.000000
Ti21  Ti  0.362770  0.100000  0.183335 1.000000 Biso 0.000000
Ti22  Ti  0.362770  0.300000  0.216665 1.000000 Biso 0.000000
Ti23  Ti  0.362770  0.166670  0.250000 1.000000 Biso 0.000000
Ti24  Ti  0.362770  0.033330  0.283335 1.000000 Biso 0.000000
Ti25  Ti  0.362770  0.233330  0.316665 1.000000 Biso 0.000000
Ti26  Ti  0.362770  0.100000  0.350000 1.000000 Biso 0.000000
Ti27  Ti  0.362770  0.300000  0.383335 1.000000 Biso 0.000000
Ti28  Ti  0.362770  0.166670  0.416665 1.000000 Biso 0.000000
Ti29  Ti  0.362770  0.033330  0.450000 1.000000 Biso 0.000000
Ti30  Ti  0.362770  0.233330  0.483335 1.000000 Biso 0.000000
O46  O  0.344600  0.266670  0.016665 1.000000 Biso 0.000000
O47  O  0.344600  0.133330  0.050000 1.000000 Biso 0.000000
O48  O  0.344600  1.000000  0.083335 1.000000 Biso 0.000000
O49  O  0.344600  0.200000  0.116665 1.000000 Biso 0.000000
O50  O  0.344600  0.066670  0.150000 1.000000 Biso 0.000000
O51  O  0.344600  0.266670  0.183335 1.000000 Biso 0.000000
O52  O  0.344600  0.133330  0.216665 1.000000 Biso 0.000000
O53  O  0.344600  0.000000  0.250000 1.000000 Biso 0.000000
O54  O  0.344600  0.200000  0.283335 1.000000 Biso 0.000000
O55  O  0.344600  0.066670  0.316665 1.000000 Biso 0.000000
O56  O  0.344600  0.266670  0.350000 1.000000 Biso 0.000000
O57  O  0.344600  0.133330  0.383335 1.000000 Biso 0.000000
O58  O  0.344600  0.000000  0.416665 1.000000 Biso 0.000000
O59  O  0.344600  0.200000  0.450000 1.000000 Biso 0.000000
O60  O  0.344600  0.066670  0.483335 1.000000 Biso 0.000000
O61  O  0.344600  0.166670  0.000000 1.000000 Biso 0.000000
O62  O  0.344600  0.033330  0.033335 1.000000 Biso 0.000000
O63  O  0.344600  0.233330  0.066665 1.000000 Biso 0.000000
O64  O  0.344600  0.100000  0.100000 1.000000 Biso 0.000000
O65  O  0.344600  0.300000  0.133335 1.000000 Biso 0.000000
O66  O  0.344600  0.166670  0.166665 1.000000 Biso 0.000000
O67  O  0.344600  0.033330  0.200000 1.000000 Biso 0.000000
O68  O  0.344600  0.233330  0.233335 1.000000 Biso 0.000000
O69  O  0.344600  0.100000  0.266665 1.000000 Biso 0.000000
O70  O  0.344600  0.300000  0.300000 1.000000 Biso 0.000000
O71  O  0.344600  0.166670  0.333335 1.000000 Biso 0.000000
O72  O  0.344600  0.033330  0.366665 1.000000 Biso 0.000000
O73  O  0.344600  0.233330  0.400000 1.000000 Biso 0.000000
O74  O  0.344600  0.100000  0.433335 1.000000 Biso 0.000000
O75  O  0.344600  0.300000  0.466665 1.000000 Biso 0.000000
O76  O  0.473430  0.100000  0.016665 1.000000 Biso 0.000000
O77  O  0.473430  0.300000  0.050000 1.000000 Biso 0.000000
O78  O  0.473430  0.166670  0.083335 1.000000 Biso 0.000000
O79  O  0.473430  0.033330  0.116665 1.000000 Biso 0.000000
O80  O  0.473430  0.233330  0.150000 1.000000 Biso 0.000000
O81  O  0.473430  0.100000  0.183335 1.000000 Biso 0.000000
O82  O  0.473430  0.300000  0.216665 1.000000 Biso 0.000000
O83  O  0.473430  0.166670  0.250000 1.000000 Biso 0.000000
O84  O  0.473430  0.033330  0.283335 1.000000 Biso 0.000000
O85  O  0.473430  0.233330  0.316665 1.000000 Biso 0.000000
O86  O  0.473430  0.100000  0.350000 1.000000 Biso 0.000000
O87  O  0.473430  0.300000  0.383335 1.000000 Biso 0.000000
O88  O  0.473430  0.166670  0.416665 1.000000 Biso 0.000000
O89  O  0.473430  0.033330  0.450000 1.000000 Biso 0.000000
O90  O  0.473430  0.233330  0.483335 1.000000 Biso 0.000000
Pb31  Pb  0.747630  0.000000  0.000000 1.000000 Biso 0.000000
Pb32  Pb  0.747630  0.200000  0.033335 1.000000 Biso 0.000000
Pb33  Pb  0.747630  0.066670  0.066665 1.000000 Biso 0.000000
Pb34  Pb  0.747630  0.266670  0.100000 1.000000 Biso 0.000000
Pb35  Pb  0.747630  0.133330  0.133335 1.000000 Biso 0.000000
Pb36  Pb  0.747630  1.000000  0.166665 1.000000 Biso 0.000000
Pb37  Pb  0.747630  0.200000  0.200000 1.000000 Biso 0.000000
Pb38  Pb  0.747630  0.066670  0.233335 1.000000 Biso 0.000000
Pb39  Pb  0.747630  0.266670  0.266665 1.000000 Biso 0.000000
Pb40  Pb  0.747630  0.133330  0.300000 1.000000 Biso 0.000000
Pb41  Pb  0.747630  0.000000  0.333335 1.000000 Biso 0.000000
Pb42  Pb  0.747630  0.200000  0.366665 1.000000 Biso 0.000000
Pb43  Pb  0.747630  0.066670  0.400000 1.000000 Biso 0.000000
Pb44  Pb  0.747630  0.266670  0.433335 1.000000 Biso 0.000000
Pb45  Pb  0.747630  0.133330  0.466665 1.000000 Biso 0.000000
Ti31  Ti  0.612770  0.100000  0.016665 1.000000 Biso 0.000000
Ti32  Ti  0.612770  0.300000  0.050000 1.000000 Biso 0.000000
Ti33  Ti  0.612770  0.166670  0.083335 1.000000 Biso 0.000000
Ti34  Ti  0.612770  0.033330  0.116665 1.000000 Biso 0.000000
Ti35  Ti  0.612770  0.233330  0.150000 1.000000 Biso 0.000000
Ti36  Ti  0.612770  0.100000  0.183335 1.000000 Biso 0.000000
Ti37  Ti  0.612770  0.300000  0.216665 1.000000 Biso 0.000000
Ti38  Ti  0.612770  0.166670  0.250000 1.000000 Biso 0.000000
Ti39  Ti  0.612770  0.033330  0.283335 1.000000 Biso 0.000000
Ti40  Ti  0.612770  0.233330  0.316665 1.000000 Biso 0.000000
Ti41  Ti  0.612770  0.100000  0.350000 1.000000 Biso 0.000000
Ti42  Ti  0.612770  0.300000  0.383335 1.000000 Biso 0.000000
Ti43  Ti  0.612770  0.166670  0.416665 1.000000 Biso 0.000000
Ti44  Ti  0.612770  0.033330  0.450000 1.000000 Biso 0.000000
Ti45  Ti  0.612770  0.233330  0.483335 1.000000 Biso 0.000000
O91  O  0.594600  0.266670  0.016665 1.000000 Biso 0.000000
O92  O  0.594600  0.133330  0.050000 1.000000 Biso 0.000000
O93  O  0.594600  1.000000  0.083335 1.000000 Biso 0.000000
O94  O  0.594600  0.200000  0.116665 1.000000 Biso 0.000000
O95  O  0.594600  0.066670  0.150000 1.000000 Biso 0.000000
O96  O  0.594600  0.266670  0.183335 1.000000 Biso 0.000000
O97  O  0.594600  0.133330  0.216665 1.000000 Biso 0.000000
O98  O  0.594600  0.000000  0.250000 1.000000 Biso 0.000000
O99  O  0.594600  0.200000  0.283335 1.000000 Biso 0.000000
O100  O  0.594600  0.066670  0.316665 1.000000 Biso 0.000000
O101  O  0.594600  0.266670  0.350000 1.000000 Biso 0.000000
O102  O  0.594600  0.133330  0.383335 1.000000 Biso 0.000000
O103  O  0.594600  0.000000  0.416665 1.000000 Biso 0.000000
O104  O  0.594600  0.200000  0.450000 1.000000 Biso 0.000000
O105  O  0.594600  0.066670  0.483335 1.000000 Biso 0.000000
O106  O  0.594600  0.166670  0.000000 1.000000 Biso 0.000000
O107  O  0.594600  0.033330  0.033335 1.000000 Biso 0.000000
O108  O  0.594600  0.233330  0.066665 1.000000 Biso 0.000000
O109  O  0.594600  0.100000  0.100000 1.000000 Biso 0.000000
O110  O  0.594600  0.300000  0.133335 1.000000 Biso 0.000000
O111  O  0.594600  0.166670  0.166665 1.000000 Biso 0.000000
O112  O  0.594600  0.033330  0.200000 1.000000 Biso 0.000000
O113  O  0.594600  0.233330  0.233335 1.000000 Biso 0.000000
O114  O  0.594600  0.100000  0.266665 1.000000 Biso 0.000000
O115  O  0.594600  0.300000  0.300000 1.000000 Biso 0.000000
O116  O  0.594600  0.166670  0.333335 1.000000 Biso 0.000000
O117  O  0.594600  0.033330  0.366665 1.000000 Biso 0.000000
O118  O  0.594600  0.233330  0.400000 1.000000 Biso 0.000000
O119  O  0.594600  0.100000  0.433335 1.000000 Biso 0.000000
O120  O  0.594600  0.300000  0.466665 1.000000 Biso 0.000000
O121  O  0.723430  0.100000  0.016665 1.000000 Biso 0.000000
O122  O  0.723430  0.300000  0.050000 1.000000 Biso 0.000000
O123  O  0.723430  0.166670  0.083335 1.000000 Biso 0.000000
O124  O  0.723430  0.033330  0.116665 1.000000 Biso 0.000000
O125  O  0.723430  0.233330  0.150000 1.000000 Biso 0.000000
O126  O  0.723430  0.100000  0.183335 1.000000 Biso 0.000000
O127  O  0.723430  0.300000  0.216665 1.000000 Biso 0.000000
O128  O  0.723430  0.166670  0.250000 1.000000 Biso 0.000000
O129  O  0.723430  0.033330  0.283335 1.000000 Biso 0.000000
O130  O  0.723430  0.233330  0.316665 1.000000 Biso 0.000000
O131  O  0.723430  0.100000  0.350000 1.000000 Biso 0.000000
O132  O  0.723430  0.300000  0.383335 1.000000 Biso 0.000000
O133  O  0.723430  0.166670  0.416665 1.000000 Biso 0.000000
O134  O  0.723430  0.033330  0.450000 1.000000 Biso 0.000000
O135  O  0.723430  0.233330  0.483335 1.000000 Biso 0.000000
Pb46  Pb  0.997630  0.000000  0.000000 1.000000 Biso 0.000000
Pb47  Pb  0.997630  0.200000  0.033335 1.000000 Biso 0.000000
Pb48  Pb  0.997630  0.066670  0.066665 1.000000 Biso 0.000000
Pb49  Pb  0.997630  0.266670  0.100000 1.000000 Biso 0.000000
Pb50  Pb  0.997630  0.133330  0.133335 1.000000 Biso 0.000000
Pb51  Pb  0.997630  1.000000  0.166665 1.000000 Biso 0.000000
Pb52  Pb  0.997630  0.200000  0.200000 1.000000 Biso 0.000000
Pb53  Pb  0.997630  0.066670  0.233335 1.000000 Biso 0.000000
Pb54  Pb  0.997630  0.266670  0.266665 1.000000 Biso 0.000000
Pb55  Pb  0.997630  0.133330  0.300000 1.000000 Biso 0.000000
Pb56  Pb  0.997630  0.000000  0.333335 1.000000 Biso 0.000000
Pb57  Pb  0.997630  0.200000  0.366665 1.000000 Biso 0.000000
Pb58  Pb  0.997630  0.066670  0.400000 1.000000 Biso 0.000000
Pb59  Pb  0.997630  0.266670  0.433335 1.000000 Biso 0.000000
Pb60  Pb  0.997630  0.133330  0.466665 1.000000 Biso 0.000000
Ti46  Ti  0.862770  0.100000  0.016665 1.000000 Biso 0.000000
Ti47  Ti  0.862770  0.300000  0.050000 1.000000 Biso 0.000000
Ti48  Ti  0.862770  0.166670  0.083335 1.000000 Biso 0.000000
Ti49  Ti  0.862770  0.033330  0.116665 1.000000 Biso 0.000000
Ti50  Ti  0.862770  0.233330  0.150000 1.000000 Biso 0.000000
Ti51  Ti  0.862770  0.100000  0.183335 1.000000 Biso 0.000000
Ti52  Ti  0.862770  0.300000  0.216665 1.000000 Biso 0.000000
Ti53  Ti  0.862770  0.166670  0.250000 1.000000 Biso 0.000000
Ti54  Ti  0.862770  0.033330  0.283335 1.000000 Biso 0.000000
Ti55  Ti  0.862770  0.233330  0.316665 1.000000 Biso 0.000000
Ti56  Ti  0.862770  0.100000  0.350000 1.000000 Biso 0.000000
Ti57  Ti  0.862770  0.300000  0.383335 1.000000 Biso 0.000000
Ti58  Ti  0.862770  0.166670  0.416665 1.000000 Biso 0.000000
Ti59  Ti  0.862770  0.033330  0.450000 1.000000 Biso 0.000000
Ti60  Ti  0.862770  0.233330  0.483335 1.000000 Biso 0.000000
O136  O  0.844600  0.266670  0.016665 1.000000 Biso 0.000000
O137  O  0.844600  0.133330  0.050000 1.000000 Biso 0.000000
O138  O  0.844600  1.000000  0.083335 1.000000 Biso 0.000000
O139  O  0.844600  0.200000  0.116665 1.000000 Biso 0.000000
O140  O  0.844600  0.066670  0.150000 1.000000 Biso 0.000000
O141  O  0.844600  0.266670  0.183335 1.000000 Biso 0.000000
O142  O  0.844600  0.133330  0.216665 1.000000 Biso 0.000000
O143  O  0.844600  0.000000  0.250000 1.000000 Biso 0.000000
O144  O  0.844600  0.200000  0.283335 1.000000 Biso 0.000000
O145  O  0.844600  0.066670  0.316665 1.000000 Biso 0.000000
O146  O  0.844600  0.266670  0.350000 1.000000 Biso 0.000000
O147  O  0.844600  0.133330  0.383335 1.000000 Biso 0.000000
O148  O  0.844600  0.000000  0.416665 1.000000 Biso 0.000000
O149  O  0.844600  0.200000  0.450000 1.000000 Biso 0.000000
O150  O  0.844600  0.066670  0.483335 1.000000 Biso 0.000000
O151  O  0.844600  0.166670  0.000000 1.000000 Biso 0.000000
O152  O  0.844600  0.033330  0.033335 1.000000 Biso 0.000000
O153  O  0.844600  0.233330  0.066665 1.000000 Biso 0.000000
O154  O  0.844600  0.100000  0.100000 1.000000 Biso 0.000000
O155  O  0.844600  0.300000  0.133335 1.000000 Biso 0.000000
O156  O  0.844600  0.166670  0.166665 1.000000 Biso 0.000000
O157  O  0.844600  0.033330  0.200000 1.000000 Biso 0.000000
O158  O  0.844600  0.233330  0.233335 1.000000 Biso 0.000000
O159  O  0.844600  0.100000  0.266665 1.000000 Biso 0.000000
O160  O  0.844600  0.300000  0.300000 1.000000 Biso 0.000000
O161  O  0.844600  0.166670  0.333335 1.000000 Biso 0.000000
O162  O  0.844600  0.033330  0.366665 1.000000 Biso 0.000000
O163  O  0.844600  0.233330  0.400000 1.000000 Biso 0.000000
O164  O  0.844600  0.100000  0.433335 1.000000 Biso 0.000000
O165  O  0.844600  0.300000  0.466665 1.000000 Biso 0.000000
O166  O  0.973430  0.100000  0.016665 1.000000 Biso 0.000000
O167  O  0.973430  0.300000  0.050000 1.000000 Biso 0.000000
O168  O  0.973430  0.166670  0.083335 1.000000 Biso 0.000000
O169  O  0.973430  0.033330  0.116665 1.000000 Biso 0.000000
O170  O  0.973430  0.233330  0.150000 1.000000 Biso 0.000000
O171  O  0.973430  0.100000  0.183335 1.000000 Biso 0.000000
O172  O  0.973430  0.300000  0.216665 1.000000 Biso 0.000000
O173  O  0.973430  0.166670  0.250000 1.000000 Biso 0.000000
O174  O  0.973430  0.033330  0.283335 1.000000 Biso 0.000000
O175  O  0.973430  0.233330  0.316665 1.000000 Biso 0.000000
O176  O  0.973430  0.100000  0.350000 1.000000 Biso 0.000000
O177  O  0.973430  0.300000  0.383335 1.000000 Biso 0.000000
O178  O  0.973430  0.166670  0.416665 1.000000 Biso 0.000000
O179  O  0.973430  0.033330  0.450000 1.000000 Biso 0.000000
O180  O  0.973430  0.233330  0.483335 1.000000 Biso 0.000000
Pb61  Pb  0.247630  0.333330  0.000000 1.000000 Biso 0.000000
Pb62  Pb  0.247630  0.533330  0.033335 1.000000 Biso 0.000000
Pb63  Pb  0.247630  0.400000  0.066665 1.000000 Biso 0.000000
Pb64  Pb  0.247630  0.600000  0.100000 1.000000 Biso 0.000000
Pb65  Pb  0.247630  0.466670  0.133335 1.000000 Biso 0.000000
Pb66  Pb  0.247630  0.333330  0.166665 1.000000 Biso 0.000000
Pb67  Pb  0.247630  0.533330  0.200000 1.000000 Biso 0.000000
Pb68  Pb  0.247630  0.400000  0.233335 1.000000 Biso 0.000000
Pb69  Pb  0.247630  0.600000  0.266665 1.000000 Biso 0.000000
Pb70  Pb  0.247630  0.466670  0.300000 1.000000 Biso 0.000000
Pb71  Pb  0.247630  0.333330  0.333335 1.000000 Biso 0.000000
Pb72  Pb  0.247630  0.533330  0.366665 1.000000 Biso 0.000000
Pb73  Pb  0.247630  0.400000  0.400000 1.000000 Biso 0.000000
Pb74  Pb  0.247630  0.600000  0.433335 1.000000 Biso 0.000000
Pb75  Pb  0.247630  0.466670  0.466665 1.000000 Biso 0.000000
Ti61  Ti  0.112770  0.433330  0.016665 1.000000 Biso 0.000000
Ti62  Ti  0.112770  0.633330  0.050000 1.000000 Biso 0.000000
Ti63  Ti  0.112770  0.500000  0.083335 1.000000 Biso 0.000000
Ti64  Ti  0.112770  0.366670  0.116665 1.000000 Biso 0.000000
Ti65  Ti  0.112770  0.566670  0.150000 1.000000 Biso 0.000000
Ti66  Ti  0.112770  0.433330  0.183335 1.000000 Biso 0.000000
Ti67  Ti  0.112770  0.633330  0.216665 1.000000 Biso 0.000000
Ti68  Ti  0.112770  0.500000  0.250000 1.000000 Biso 0.000000
Ti69  Ti  0.112770  0.366670  0.283335 1.000000 Biso 0.000000
Ti70  Ti  0.112770  0.566670  0.316665 1.000000 Biso 0.000000
Ti71  Ti  0.112770  0.433330  0.350000 1.000000 Biso 0.000000
Ti72  Ti  0.112770  0.633330  0.383335 1.000000 Biso 0.000000
Ti73  Ti  0.112770  0.500000  0.416665 1.000000 Biso 0.000000
Ti74  Ti  0.112770  0.366670  0.450000 1.000000 Biso 0.000000
Ti75  Ti  0.112770  0.566670  0.483335 1.000000 Biso 0.000000
O181  O  0.094600  0.600000  0.016665 1.000000 Biso 0.000000
O182  O  0.094600  0.466670  0.050000 1.000000 Biso 0.000000
O183  O  0.094600  0.333330  0.083335 1.000000 Biso 0.000000
O184  O  0.094600  0.533330  0.116665 1.000000 Biso 0.000000
O185  O  0.094600  0.400000  0.150000 1.000000 Biso 0.000000
O186  O  0.094600  0.600000  0.183335 1.000000 Biso 0.000000
O187  O  0.094600  0.466670  0.216665 1.000000 Biso 0.000000
O188  O  0.094600  0.333330  0.250000 1.000000 Biso 0.000000
O189  O  0.094600  0.533330  0.283335 1.000000 Biso 0.000000
O190  O  0.094600  0.400000  0.316665 1.000000 Biso 0.000000
O191  O  0.094600  0.600000  0.350000 1.000000 Biso 0.000000
O192  O  0.094600  0.466670  0.383335 1.000000 Biso 0.000000
O193  O  0.094600  0.333330  0.416665 1.000000 Biso 0.000000
O194  O  0.094600  0.533330  0.450000 1.000000 Biso 0.000000
O195  O  0.094600  0.400000  0.483335 1.000000 Biso 0.000000
O196  O  0.094600  0.500000  0.000000 1.000000 Biso 0.000000
O197  O  0.094600  0.366670  0.033335 1.000000 Biso 0.000000
O198  O  0.094600  0.566670  0.066665 1.000000 Biso 0.000000
O199  O  0.094600  0.433330  0.100000 1.000000 Biso 0.000000
O200  O  0.094600  0.633330  0.133335 1.000000 Biso 0.000000
O201  O  0.094600  0.500000  0.166665 1.000000 Biso 0.000000
O202  O  0.094600  0.366670  0.200000 1.000000 Biso 0.000000
O203  O  0.094600  0.566670  0.233335 1.000000 Biso 0.000000
O204  O  0.094600  0.433330  0.266665 1.000000 Biso 0.000000
O205  O  0.094600  0.633330  0.300000 1.000000 Biso 0.000000
O206  O  0.094600  0.500000  0.333335 1.000000 Biso 0.000000
O207  O  0.094600  0.366670  0.366665 1.000000 Biso 0.000000
O208  O  0.094600  0.566670  0.400000 1.000000 Biso 0.000000
O209  O  0.094600  0.433330  0.433335 1.000000 Biso 0.000000
O210  O  0.094600  0.633330  0.466665 1.000000 Biso 0.000000
O211  O  0.223430  0.433330  0.016665 1.000000 Biso 0.000000
O212  O  0.223430  0.633330  0.050000 1.000000 Biso 0.000000
O213  O  0.223430  0.500000  0.083335 1.000000 Biso 0.000000
O214  O  0.223430  0.366670  0.116665 1.000000 Biso 0.000000
O215  O  0.223430  0.566670  0.150000 1.000000 Biso 0.000000
O216  O  0.223430  0.433330  0.183335 1.000000 Biso 0.000000
O217  O  0.223430  0.633330  0.216665 1.000000 Biso 0.000000
O218  O  0.223430  0.500000  0.250000 1.000000 Biso 0.000000
O219  O  0.223430  0.366670  0.283335 1.000000 Biso 0.000000
O220  O  0.223430  0.566670  0.316665 1.000000 Biso 0.000000
O221  O  0.223430  0.433330  0.350000 1.000000 Biso 0.000000
O222  O  0.223430  0.633330  0.383335 1.000000 Biso 0.000000
O223  O  0.223430  0.500000  0.416665 1.000000 Biso 0.000000
O224  O  0.223430  0.366670  0.450000 1.000000 Biso 0.000000
O225  O  0.223430  0.566670  0.483335 1.000000 Biso 0.000000
Pb76  Pb  0.497630  0.333330  0.000000 1.000000 Biso 0.000000
Pb77  Pb  0.497630  0.533330  0.033335 1.000000 Biso 0.000000
Pb78  Pb  0.497630  0.400000  0.066665 1.000000 Biso 0.000000
Pb79  Pb  0.497630  0.600000  0.100000 1.000000 Biso 0.000000
Pb80  Pb  0.497630  0.466670  0.133335 1.000000 Biso 0.000000
Pb81  Pb  0.497630  0.333330  0.166665 1.000000 Biso 0.000000
Pb82  Pb  0.497630  0.533330  0.200000 1.000000 Biso 0.000000
Pb83  Pb  0.497630  0.400000  0.233335 1.000000 Biso 0.000000
Pb84  Pb  0.497630  0.600000  0.266665 1.000000 Biso 0.000000
Pb85  Pb  0.497630  0.466670  0.300000 1.000000 Biso 0.000000
Pb86  Pb  0.497630  0.333330  0.333335 1.000000 Biso 0.000000
Pb87  Pb  0.497630  0.533330  0.366665 1.000000 Biso 0.000000
Pb88  Pb  0.497630  0.400000  0.400000 1.000000 Biso 0.000000
Pb89  Pb  0.497630  0.600000  0.433335 1.000000 Biso 0.000000
Pb90  Pb  0.497630  0.466670  0.466665 1.000000 Biso 0.000000
Ti76  Ti  0.362770  0.433330  0.016665 1.000000 Biso 0.000000
Ti77  Ti  0.362770  0.633330  0.050000 1.000000 Biso 0.000000
Ti78  Ti  0.362770  0.500000  0.083335 1.000000 Biso 0.000000
Ti79  Ti  0.362770  0.366670  0.116665 1.000000 Biso 0.000000
Ti80  Ti  0.362770  0.566670  0.150000 1.000000 Biso 0.000000
Ti81  Ti  0.362770  0.433330  0.183335 1.000000 Biso 0.000000
Ti82  Ti  0.362770  0.633330  0.216665 1.000000 Biso 0.000000
Ti83  Ti  0.362770  0.500000  0.250000 1.000000 Biso 0.000000
Ti84  Ti  0.362770  0.366670  0.283335 1.000000 Biso 0.000000
Ti85  Ti  0.362770  0.566670  0.316665 1.000000 Biso 0.000000
Ti86  Ti  0.362770  0.433330  0.350000 1.000000 Biso 0.000000
Ti87  Ti  0.362770  0.633330  0.383335 1.000000 Biso 0.000000
Ti88  Ti  0.362770  0.500000  0.416665 1.000000 Biso 0.000000
Ti89  Ti  0.362770  0.366670  0.450000 1.000000 Biso 0.000000
Ti90  Ti  0.362770  0.566670  0.483335 1.000000 Biso 0.000000
O226  O  0.344600  0.600000  0.016665 1.000000 Biso 0.000000
O227  O  0.344600  0.466670  0.050000 1.000000 Biso 0.000000
O228  O  0.344600  0.333330  0.083335 1.000000 Biso 0.000000
O229  O  0.344600  0.533330  0.116665 1.000000 Biso 0.000000
O230  O  0.344600  0.400000  0.150000 1.000000 Biso 0.000000
O231  O  0.344600  0.600000  0.183335 1.000000 Biso 0.000000
O232  O  0.344600  0.466670  0.216665 1.000000 Biso 0.000000
O233  O  0.344600  0.333330  0.250000 1.000000 Biso 0.000000
O234  O  0.344600  0.533330  0.283335 1.000000 Biso 0.000000
O235  O  0.344600  0.400000  0.316665 1.000000 Biso 0.000000
O236  O  0.344600  0.600000  0.350000 1.000000 Biso 0.000000
O237  O  0.344600  0.466670  0.383335 1.000000 Biso 0.000000
O238  O  0.344600  0.333330  0.416665 1.000000 Biso 0.000000
O239  O  0.344600  0.533330  0.450000 1.000000 Biso 0.000000
O240  O  0.344600  0.400000  0.483335 1.000000 Biso 0.000000
O241  O  0.344600  0.500000  0.000000 1.000000 Biso 0.000000
O242  O  0.344600  0.366670  0.033335 1.000000 Biso 0.000000
O243  O  0.344600  0.566670  0.066665 1.000000 Biso 0.000000
O244  O  0.344600  0.433330  0.100000 1.000000 Biso 0.000000
O245  O  0.344600  0.633330  0.133335 1.000000 Biso 0.000000
O246  O  0.344600  0.500000  0.166665 1.000000 Biso 0.000000
O247  O  0.344600  0.366670  0.200000 1.000000 Biso 0.000000
O248  O  0.344600  0.566670  0.233335 1.000000 Biso 0.000000
O249  O  0.344600  0.433330  0.266665 1.000000 Biso 0.000000
O250  O  0.344600  0.633330  0.300000 1.000000 Biso 0.000000
O251  O  0.344600  0.500000  0.333335 1.000000 Biso 0.000000
O252  O  0.344600  0.366670  0.366665 1.000000 Biso 0.000000
O253  O  0.344600  0.566670  0.400000 1.000000 Biso 0.000000
O254  O  0.344600  0.433330  0.433335 1.000000 Biso 0.000000
O255  O  0.344600  0.633330  0.466665 1.000000 Biso 0.000000
O256  O  0.473430  0.433330  0.016665 1.000000 Biso 0.000000
O257  O  0.473430  0.633330  0.050000 1.000000 Biso 0.000000
O258  O  0.473430  0.500000  0.083335 1.000000 Biso 0.000000
O259  O  0.473430  0.366670  0.116665 1.000000 Biso 0.000000
O260  O  0.473430  0.566670  0.150000 1.000000 Biso 0.000000
O261  O  0.473430  0.433330  0.183335 1.000000 Biso 0.000000
O262  O  0.473430  0.633330  0.216665 1.000000 Biso 0.000000
O263  O  0.473430  0.500000  0.250000 1.000000 Biso 0.000000
O264  O  0.473430  0.366670  0.283335 1.000000 Biso 0.000000
O265  O  0.473430  0.566670  0.316665 1.000000 Biso 0.000000
O266  O  0.473430  0.433330  0.350000 1.000000 Biso 0.000000
O267  O  0.473430  0.633330  0.383335 1.000000 Biso 0.000000
O268  O  0.473430  0.500000  0.416665 1.000000 Biso 0.000000
O269  O  0.473430  0.366670  0.450000 1.000000 Biso 0.000000
O270  O  0.473430  0.566670  0.483335 1.000000 Biso 0.000000
Pb91  Pb  0.747630  0.333330  0.000000 1.000000 Biso 0.000000
Pb92  Pb  0.747630  0.533330  0.033335 1.000000 Biso 0.000000
Pb93  Pb  0.747630  0.400000  0.066665 1.000000 Biso 0.000000
Pb94  Pb  0.747630  0.600000  0.100000 1.000000 Biso 0.000000
Pb95  Pb  0.747630  0.466670  0.133335 1.000000 Biso 0.000000
Pb96  Pb  0.747630  0.333330  0.166665 1.000000 Biso 0.000000
Pb97  Pb  0.747630  0.533330  0.200000 1.000000 Biso 0.000000
Pb98  Pb  0.747630  0.400000  0.233335 1.000000 Biso 0.000000
Pb99  Pb  0.747630  0.600000  0.266665 1.000000 Biso 0.000000
Pb100  Pb  0.747630  0.466670  0.300000 1.000000 Biso 0.000000
Pb101  Pb  0.747630  0.333330  0.333335 1.000000 Biso 0.000000
Pb102  Pb  0.747630  0.533330  0.366665 1.000000 Biso 0.000000
Pb103  Pb  0.747630  0.400000  0.400000 1.000000 Biso 0.000000
Pb104  Pb  0.747630  0.600000  0.433335 1.000000 Biso 0.000000
Pb105  Pb  0.747630  0.466670  0.466665 1.000000 Biso 0.000000
Ti91  Ti  0.612770  0.433330  0.016665 1.000000 Biso 0.000000
Ti92  Ti  0.612770  0.633330  0.050000 1.000000 Biso 0.000000
Ti93  Ti  0.612770  0.500000  0.083335 1.000000 Biso 0.000000
Ti94  Ti  0.612770  0.366670  0.116665 1.000000 Biso 0.000000
Ti95  Ti  0.612770  0.566670  0.150000 1.000000 Biso 0.000000
Ti96  Ti  0.612770  0.433330  0.183335 1.000000 Biso 0.000000
Ti97  Ti  0.612770  0.633330  0.216665 1.000000 Biso 0.000000
Ti98  Ti  0.612770  0.500000  0.250000 1.000000 Biso 0.000000
Ti99  Ti  0.612770  0.366670  0.283335 1.000000 Biso 0.000000
Ti100  Ti  0.612770  0.566670  0.316665 1.000000 Biso 0.000000
Ti101  Ti  0.612770  0.433330  0.350000 1.000000 Biso 0.000000
Ti102  Ti  0.612770  0.633330  0.383335 1.000000 Biso 0.000000
Ti103  Ti  0.612770  0.500000  0.416665 1.000000 Biso 0.000000
Ti104  Ti  0.612770  0.366670  0.450000 1.000000 Biso 0.000000
Ti105  Ti  0.612770  0.566670  0.483335 1.000000 Biso 0.000000
O271  O  0.594600  0.600000  0.016665 1.000000 Biso 0.000000
O272  O  0.594600  0.466670  0.050000 1.000000 Biso 0.000000
O273  O  0.594600  0.333330  0.083335 1.000000 Biso 0.000000
O274  O  0.594600  0.533330  0.116665 1.000000 Biso 0.000000
O275  O  0.594600  0.400000  0.150000 1.000000 Biso 0.000000
O276  O  0.594600  0.600000  0.183335 1.000000 Biso 0.000000
O277  O  0.594600  0.466670  0.216665 1.000000 Biso 0.000000
O278  O  0.594600  0.333330  0.250000 1.000000 Biso 0.000000
O279  O  0.594600  0.533330  0.283335 1.000000 Biso 0.000000
O280  O  0.594600  0.400000  0.316665 1.000000 Biso 0.000000
O281  O  0.594600  0.600000  0.350000 1.000000 Biso 0.000000
O282  O  0.594600  0.466670  0.383335 1.000000 Biso 0.000000
O283  O  0.594600  0.333330  0.416665 1.000000 Biso 0.000000
O284  O  0.594600  0.533330  0.450000 1.000000 Biso 0.000000
O285  O  0.594600  0.400000  0.483335 1.000000 Biso 0.000000
O286  O  0.594600  0.500000  0.000000 1.000000 Biso 0.000000
O287  O  0.594600  0.366670  0.033335 1.000000 Biso 0.000000
O288  O  0.594600  0.566670  0.066665 1.000000 Biso 0.000000
O289  O  0.594600  0.433330  0.100000 1.000000 Biso 0.000000
O290  O  0.594600  0.633330  0.133335 1.000000 Biso 0.000000
O291  O  0.594600  0.500000  0.166665 1.000000 Biso 0.000000
O292  O  0.594600  0.366670  0.200000 1.000000 Biso 0.000000
O293  O  0.594600  0.566670  0.233335 1.000000 Biso 0.000000
O294  O  0.594600  0.433330  0.266665 1.000000 Biso 0.000000
O295  O  0.594600  0.633330  0.300000 1.000000 Biso 0.000000
O296  O  0.594600  0.500000  0.333335 1.000000 Biso 0.000000
O297  O  0.594600  0.366670  0.366665 1.000000 Biso 0.000000
O298  O  0.594600  0.566670  0.400000 1.000000 Biso 0.000000
O299  O  0.594600  0.433330  0.433335 1.000000 Biso 0.000000
O300  O  0.594600  0.633330  0.466665 1.000000 Biso 0.000000
O301  O  0.723430  0.433330  0.016665 1.000000 Biso 0.000000
O302  O  0.723430  0.633330  0.050000 1.000000 Biso 0.000000
O303  O  0.723430  0.500000  0.083335 1.000000 Biso 0.000000
O304  O  0.723430  0.366670  0.116665 1.000000 Biso 0.000000
O305  O  0.723430  0.566670  0.150000 1.000000 Biso 0.000000
O306  O  0.723430  0.433330  0.183335 1.000000 Biso 0.000000
O307  O  0.723430  0.633330  0.216665 1.000000 Biso 0.000000
O308  O  0.723430  0.500000  0.250000 1.000000 Biso 0.000000
O309  O  0.723430  0.366670  0.283335 1.000000 Biso 0.000000
O310  O  0.723430  0.566670  0.316665 1.000000 Biso 0.000000
O311  O  0.723430  0.433330  0.350000 1.000000 Biso 0.000000
O312  O  0.723430  0.633330  0.383335 1.000000 Biso 0.000000
O313  O  0.723430  0.500000  0.416665 1.000000 Biso 0.000000
O314  O  0.723430  0.366670  0.450000 1.000000 Biso 0.000000
O315  O  0.723430  0.566670  0.483335 1.000000 Biso 0.000000
Pb106  Pb  0.997630  0.333330  0.000000 1.000000 Biso 0.000000
Pb107  Pb  0.997630  0.533330  0.033335 1.000000 Biso 0.000000
Pb108  Pb  0.997630  0.400000  0.066665 1.000000 Biso 0.000000
Pb109  Pb  0.997630  0.600000  0.100000 1.000000 Biso 0.000000
Pb110  Pb  0.997630  0.466670  0.133335 1.000000 Biso 0.000000
Pb111  Pb  0.997630  0.333330  0.166665 1.000000 Biso 0.000000
Pb112  Pb  0.997630  0.533330  0.200000 1.000000 Biso 0.000000
Pb113  Pb  0.997630  0.400000  0.233335 1.000000 Biso 0.000000
Pb114  Pb  0.997630  0.600000  0.266665 1.000000 Biso 0.000000
Pb115  Pb  0.997630  0.466670  0.300000 1.000000 Biso 0.000000
Pb116  Pb  0.997630  0.333330  0.333335 1.000000 Biso 0.000000
Pb117  Pb  0.997630  0.533330  0.366665 1.000000 Biso 0.000000
Pb118  Pb  0.997630  0.400000  0.400000 1.000000 Biso 0.000000
Pb119  Pb  0.997630  0.600000  0.433335 1.000000 Biso 0.000000
Pb120  Pb  0.997630  0.466670  0.466665 1.000000 Biso 0.000000
Ti106  Ti  0.862770  0.433330  0.016665 1.000000 Biso 0.000000
Ti107  Ti  0.862770  0.633330  0.050000 1.000000 Biso 0.000000
Ti108  Ti  0.862770  0.500000  0.083335 1.000000 Biso 0.000000
Ti109  Ti  0.862770  0.366670  0.116665 1.000000 Biso 0.000000
Ti110  Ti  0.862770  0.566670  0.150000 1.000000 Biso 0.000000
Ti111  Ti  0.862770  0.433330  0.183335 1.000000 Biso 0.000000
Ti112  Ti  0.862770  0.633330  0.216665 1.000000 Biso 0.000000
Ti113  Ti  0.862770  0.500000  0.250000 1.000000 Biso 0.000000
Ti114  Ti  0.862770  0.366670  0.283335 1.000000 Biso 0.000000
Ti115  Ti  0.862770  0.566670  0.316665 1.000000 Biso 0.000000
Ti116  Ti  0.862770  0.433330  0.350000 1.000000 Biso 0.000000
Ti117  Ti  0.862770  0.633330  0.383335 1.000000 Biso 0.000000
Ti118  Ti  0.862770  0.500000  0.416665 1.000000 Biso 0.000000
Ti119  Ti  0.862770  0.366670  0.450000 1.000000 Biso 0.000000
Ti120  Ti  0.862770  0.566670  0.483335 1.000000 Biso 0.000000
O316  O  0.844600  0.600000  0.016665 1.000000 Biso 0.000000
O317  O  0.844600  0.466670  0.050000 1.000000 Biso 0.000000
O318  O  0.844600  0.333330  0.083335 1.000000 Biso 0.000000
O319  O  0.844600  0.533330  0.116665 1.000000 Biso 0.000000
O320  O  0.844600  0.400000  0.150000 1.000000 Biso 0.000000
O321  O  0.844600  0.600000  0.183335 1.000000 Biso 0.000000
O322  O  0.844600  0.466670  0.216665 1.000000 Biso 0.000000
O323  O  0.844600  0.333330  0.250000 1.000000 Biso 0.000000
O324  O  0.844600  0.533330  0.283335 1.000000 Biso 0.000000
O325  O  0.844600  0.400000  0.316665 1.000000 Biso 0.000000
O326  O  0.844600  0.600000  0.350000 1.000000 Biso 0.000000
O327  O  0.844600  0.466670  0.383335 1.000000 Biso 0.000000
O328  O  0.844600  0.333330  0.416665 1.000000 Biso 0.000000
O329  O  0.844600  0.533330  0.450000 1.000000 Biso 0.000000
O330  O  0.844600  0.400000  0.483335 1.000000 Biso 0.000000
O331  O  0.844600  0.500000  0.000000 1.000000 Biso 0.000000
O332  O  0.844600  0.366670  0.033335 1.000000 Biso 0.000000
O333  O  0.844600  0.566670  0.066665 1.000000 Biso 0.000000
O334  O  0.844600  0.433330  0.100000 1.000000 Biso 0.000000
O335  O  0.844600  0.633330  0.133335 1.000000 Biso 0.000000
O336  O  0.844600  0.500000  0.166665 1.000000 Biso 0.000000
O337  O  0.844600  0.366670  0.200000 1.000000 Biso 0.000000
O338  O  0.844600  0.566670  0.233335 1.000000 Biso 0.000000
O339  O  0.844600  0.433330  0.266665 1.000000 Biso 0.000000
O340  O  0.844600  0.633330  0.300000 1.000000 Biso 0.000000
O341  O  0.844600  0.500000  0.333335 1.000000 Biso 0.000000
O342  O  0.844600  0.366670  0.366665 1.000000 Biso 0.000000
O343  O  0.844600  0.566670  0.400000 1.000000 Biso 0.000000
O344  O  0.844600  0.433330  0.433335 1.000000 Biso 0.000000
O345  O  0.844600  0.633330  0.466665 1.000000 Biso 0.000000
O346  O  0.973430  0.433330  0.016665 1.000000 Biso 0.000000
O347  O  0.973430  0.633330  0.050000 1.000000 Biso 0.000000
O348  O  0.973430  0.500000  0.083335 1.000000 Biso 0.000000
O349  O  0.973430  0.366670  0.116665 1.000000 Biso 0.000000
O350  O  0.973430  0.566670  0.150000 1.000000 Biso 0.000000
O351  O  0.973430  0.433330  0.183335 1.000000 Biso 0.000000
O352  O  0.973430  0.633330  0.216665 1.000000 Biso 0.000000
O353  O  0.973430  0.500000  0.250000 1.000000 Biso 0.000000
O354  O  0.973430  0.366670  0.283335 1.000000 Biso 0.000000
O355  O  0.973430  0.566670  0.316665 1.000000 Biso 0.000000
O356  O  0.973430  0.433330  0.350000 1.000000 Biso 0.000000
O357  O  0.973430  0.633330  0.383335 1.000000 Biso 0.000000
O358  O  0.973430  0.500000  0.416665 1.000000 Biso 0.000000
O359  O  0.973430  0.366670  0.450000 1.000000 Biso 0.000000
O360  O  0.973430  0.566670  0.483335 1.000000 Biso 0.000000
Pb121  Pb  0.247630  0.666670  0.000000 1.000000 Biso 0.000000
Pb122  Pb  0.247630  0.866670  0.033335 1.000000 Biso 0.000000
Pb123  Pb  0.247630  0.733330  0.066665 1.000000 Biso 0.000000
Pb124  Pb  0.247630  0.933330  0.100000 1.000000 Biso 0.000000
Pb125  Pb  0.247630  0.800000  0.133335 1.000000 Biso 0.000000
Pb126  Pb  0.247630  0.666670  0.166665 1.000000 Biso 0.000000
Pb127  Pb  0.247630  0.866670  0.200000 1.000000 Biso 0.000000
Pb128  Pb  0.247630  0.733330  0.233335 1.000000 Biso 0.000000
Pb129  Pb  0.247630  0.933330  0.266665 1.000000 Biso 0.000000
Pb130  Pb  0.247630  0.800000  0.300000 1.000000 Biso 0.000000
Pb131  Pb  0.247630  0.666670  0.333335 1.000000 Biso 0.000000
Pb132  Pb  0.247630  0.866670  0.366665 1.000000 Biso 0.000000
Pb133  Pb  0.247630  0.733330  0.400000 1.000000 Biso 0.000000
Pb134  Pb  0.247630  0.933330  0.433335 1.000000 Biso 0.000000
Pb135  Pb  0.247630  0.800000  0.466665 1.000000 Biso 0.000000
Ti121  Ti  0.112770  0.766670  0.016665 1.000000 Biso 0.000000
Ti122  Ti  0.112770  0.966670  0.050000 1.000000 Biso 0.000000
Ti123  Ti  0.112770  0.833330  0.083335 1.000000 Biso 0.000000
Ti124  Ti  0.112770  0.700000  0.116665 1.000000 Biso 0.000000
Ti125  Ti  0.112770  0.900000  0.150000 1.000000 Biso 0.000000
Ti126  Ti  0.112770  0.766670  0.183335 1.000000 Biso 0.000000
Ti127  Ti  0.112770  0.966670  0.216665 1.000000 Biso 0.000000
Ti128  Ti  0.112770  0.833330  0.250000 1.000000 Biso 0.000000
Ti129  Ti  0.112770  0.700000  0.283335 1.000000 Biso 0.000000
Ti130  Ti  0.112770  0.900000  0.316665 1.000000 Biso 0.000000
Ti131  Ti  0.112770  0.766670  0.350000 1.000000 Biso 0.000000
Ti132  Ti  0.112770  0.966670  0.383335 1.000000 Biso 0.000000
Ti133  Ti  0.112770  0.833330  0.416665 1.000000 Biso 0.000000
Ti134  Ti  0.112770  0.700000  0.450000 1.000000 Biso 0.000000
Ti135  Ti  0.112770  0.900000  0.483335 1.000000 Biso 0.000000
O361  O  0.094600  0.933330  0.016665 1.000000 Biso 0.000000
O362  O  0.094600  0.800000  0.050000 1.000000 Biso 0.000000
O363  O  0.094600  0.666670  0.083335 1.000000 Biso 0.000000
O364  O  0.094600  0.866670  0.116665 1.000000 Biso 0.000000
O365  O  0.094600  0.733330  0.150000 1.000000 Biso 0.000000
O366  O  0.094600  0.933330  0.183335 1.000000 Biso 0.000000
O367  O  0.094600  0.800000  0.216665 1.000000 Biso 0.000000
O368  O  0.094600  0.666670  0.250000 1.000000 Biso 0.000000
O369  O  0.094600  0.866670  0.283335 1.000000 Biso 0.000000
O370  O  0.094600  0.733330  0.316665 1.000000 Biso 0.000000
O371  O  0.094600  0.933330  0.350000 1.000000 Biso 0.000000
O372  O  0.094600  0.800000  0.383335 1.000000 Biso 0.000000
O373  O  0.094600  0.666670  0.416665 1.000000 Biso 0.000000
O374  O  0.094600  0.866670  0.450000 1.000000 Biso 0.000000
O375  O  0.094600  0.733330  0.483335 1.000000 Biso 0.000000
O376  O  0.094600  0.833330  0.000000 1.000000 Biso 0.000000
O377  O  0.094600  0.700000  0.033335 1.000000 Biso 0.000000
O378  O  0.094600  0.900000  0.066665 1.000000 Biso 0.000000
O379  O  0.094600  0.766670  0.100000 1.000000 Biso 0.000000
O380  O  0.094600  0.966670  0.133335 1.000000 Biso 0.000000
O381  O  0.094600  0.833330  0.166665 1.000000 Biso 0.000000
O382  O  0.094600  0.700000  0.200000 1.000000 Biso 0.000000
O383  O  0.094600  0.900000  0.233335 1.000000 Biso 0.000000
O384  O  0.094600  0.766670  0.266665 1.000000 Biso 0.000000
O385  O  0.094600  0.966670  0.300000 1.000000 Biso 0.000000
O386  O  0.094600  0.833330  0.333335 1.000000 Biso 0.000000
O387  O  0.094600  0.700000  0.366665 1.000000 Biso 0.000000
O388  O  0.094600  0.900000  0.400000 1.000000 Biso 0.000000
O389  O  0.094600  0.766670  0.433335 1.000000 Biso 0.000000
O390  O  0.094600  0.966670  0.466665 1.000000 Biso 0.000000
O391  O  0.223430  0.766670  0.016665 1.000000 Biso 0.000000
O392  O  0.223430  0.966670  0.050000 1.000000 Biso 0.000000
O393  O  0.223430  0.833330  0.083335 1.000000 Biso 0.000000
O394  O  0.223430  0.700000  0.116665 1.000000 Biso 0.000000
O395  O  0.223430  0.900000  0.150000 1.000000 Biso 0.000000
O396  O  0.223430  0.766670  0.183335 1.000000 Biso 0.000000
O397  O  0.223430  0.966670  0.216665 1.000000 Biso 0.000000
O398  O  0.223430  0.833330  0.250000 1.000000 Biso 0.000000
O399  O  0.223430  0.700000  0.283335 1.000000 Biso 0.000000
O400  O  0.223430  0.900000  0.316665 1.000000 Biso 0.000000
O401  O  0.223430  0.766670  0.350000 1.000000 Biso 0.000000
O402  O  0.223430  0.966670  0.383335 1.000000 Biso 0.000000
O403  O  0.223430  0.833330  0.416665 1.000000 Biso 0.000000
O404  O  0.223430  0.700000  0.450000 1.000000 Biso 0.000000
O405  O  0.223430  0.900000  0.483335 1.000000 Biso 0.000000
Pb136  Pb  0.497630  0.666670  0.000000 1.000000 Biso 0.000000
Pb137  Pb  0.497630  0.866670  0.033335 1.000000 Biso 0.000000
Pb138  Pb  0.497630  0.733330  0.066665 1.000000 Biso 0.000000
Pb139  Pb  0.497630  0.933330  0.100000 1.000000 Biso 0.000000
Pb140  Pb  0.497630  0.800000  0.133335 1.000000 Biso 0.000000
Pb141  Pb  0.497630  0.666670  0.166665 1.000000 Biso 0.000000
Pb142  Pb  0.497630  0.866670  0.200000 1.000000 Biso 0.000000
Pb143  Pb  0.497630  0.733330  0.233335 1.000000 Biso 0.000000
Pb144  Pb  0.497630  0.933330  0.266665 1.000000 Biso 0.000000
Pb145  Pb  0.497630  0.800000  0.300000 1.000000 Biso 0.000000
Pb146  Pb  0.497630  0.666670  0.333335 1.000000 Biso 0.000000
Pb147  Pb  0.497630  0.866670  0.366665 1.000000 Biso 0.000000
Pb148  Pb  0.497630  0.733330  0.400000 1.000000 Biso 0.000000
Pb149  Pb  0.497630  0.933330  0.433335 1.000000 Biso 0.000000
Pb150  Pb  0.497630  0.800000  0.466665 1.000000 Biso 0.000000
Ti136  Ti  0.362770  0.766670  0.016665 1.000000 Biso 0.000000
Ti137  Ti  0.362770  0.966670  0.050000 1.000000 Biso 0.000000
Ti138  Ti  0.362770  0.833330  0.083335 1.000000 Biso 0.000000
Ti139  Ti  0.362770  0.700000  0.116665 1.000000 Biso 0.000000
Ti140  Ti  0.362770  0.900000  0.150000 1.000000 Biso 0.000000
Ti141  Ti  0.362770  0.766670  0.183335 1.000000 Biso 0.000000
Ti142  Ti  0.362770  0.966670  0.216665 1.000000 Biso 0.000000
Ti143  Ti  0.362770  0.833330  0.250000 1.000000 Biso 0.000000
Ti144  Ti  0.362770  0.700000  0.283335 1.000000 Biso 0.000000
Ti145  Ti  0.362770  0.900000  0.316665 1.000000 Biso 0.000000
Ti146  Ti  0.362770  0.766670  0.350000 1.000000 Biso 0.000000
Ti147  Ti  0.362770  0.966670  0.383335 1.000000 Biso 0.000000
Ti148  Ti  0.362770  0.833330  0.416665 1.000000 Biso 0.000000
Ti149  Ti  0.362770  0.700000  0.450000 1.000000 Biso 0.000000
Ti150  Ti  0.362770  0.900000  0.483335 1.000000 Biso 0.000000
O406  O  0.344600  0.933330  0.016665 1.000000 Biso 0.000000
O407  O  0.344600  0.800000  0.050000 1.000000 Biso 0.000000
O408  O  0.344600  0.666670  0.083335 1.000000 Biso 0.000000
O409  O  0.344600  0.866670  0.116665 1.000000 Biso 0.000000
O410  O  0.344600  0.733330  0.150000 1.000000 Biso 0.000000
O411  O  0.344600  0.933330  0.183335 1.000000 Biso 0.000000
O412  O  0.344600  0.800000  0.216665 1.000000 Biso 0.000000
O413  O  0.344600  0.666670  0.250000 1.000000 Biso 0.000000
O414  O  0.344600  0.866670  0.283335 1.000000 Biso 0.000000
O415  O  0.344600  0.733330  0.316665 1.000000 Biso 0.000000
O416  O  0.344600  0.933330  0.350000 1.000000 Biso 0.000000
O417  O  0.344600  0.800000  0.383335 1.000000 Biso 0.000000
O418  O  0.344600  0.666670  0.416665 1.000000 Biso 0.000000
O419  O  0.344600  0.866670  0.450000 1.000000 Biso 0.000000
O420  O  0.344600  0.733330  0.483335 1.000000 Biso 0.000000
O421  O  0.344600  0.833330  0.000000 1.000000 Biso 0.000000
O422  O  0.344600  0.700000  0.033335 1.000000 Biso 0.000000
O423  O  0.344600  0.900000  0.066665 1.000000 Biso 0.000000
O424  O  0.344600  0.766670  0.100000 1.000000 Biso 0.000000
O425  O  0.344600  0.966670  0.133335 1.000000 Biso 0.000000
O426  O  0.344600  0.833330  0.166665 1.000000 Biso 0.000000
O427  O  0.344600  0.700000  0.200000 1.000000 Biso 0.000000
O428  O  0.344600  0.900000  0.233335 1.000000 Biso 0.000000
O429  O  0.344600  0.766670  0.266665 1.000000 Biso 0.000000
O430  O  0.344600  0.966670  0.300000 1.000000 Biso 0.000000
O431  O  0.344600  0.833330  0.333335 1.000000 Biso 0.000000
O432  O  0.344600  0.700000  0.366665 1.000000 Biso 0.000000
O433  O  0.344600  0.900000  0.400000 1.000000 Biso 0.000000
O434  O  0.344600  0.766670  0.433335 1.000000 Biso 0.000000
O435  O  0.344600  0.966670  0.466665 1.000000 Biso 0.000000
O436  O  0.473430  0.766670  0.016665 1.000000 Biso 0.000000
O437  O  0.473430  0.966670  0.050000 1.000000 Biso 0.000000
O438  O  0.473430  0.833330  0.083335 1.000000 Biso 0.000000
O439  O  0.473430  0.700000  0.116665 1.000000 Biso 0.000000
O440  O  0.473430  0.900000  0.150000 1.000000 Biso 0.000000
O441  O  0.473430  0.766670  0.183335 1.000000 Biso 0.000000
O442  O  0.473430  0.966670  0.216665 1.000000 Biso 0.000000
O443  O  0.473430  0.833330  0.250000 1.000000 Biso 0.000000
O444  O  0.473430  0.700000  0.283335 1.000000 Biso 0.000000
O445  O  0.473430  0.900000  0.316665 1.000000 Biso 0.000000
O446  O  0.473430  0.766670  0.350000 1.000000 Biso 0.000000
O447  O  0.473430  0.966670  0.383335 1.000000 Biso 0.000000
O448  O  0.473430  0.833330  0.416665 1.000000 Biso 0.000000
O449  O  0.473430  0.700000  0.450000 1.000000 Biso 0.000000
O450  O  0.473430  0.900000  0.483335 1.000000 Biso 0.000000
Pb151  Pb  0.747630  0.666670  0.000000 1.000000 Biso 0.000000
Pb152  Pb  0.747630  0.866670  0.033335 1.000000 Biso 0.000000
Pb153  Pb  0.747630  0.733330  0.066665 1.000000 Biso 0.000000
Pb154  Pb  0.747630  0.933330  0.100000 1.000000 Biso 0.000000
Pb155  Pb  0.747630  0.800000  0.133335 1.000000 Biso 0.000000
Pb156  Pb  0.747630  0.666670  0.166665 1.000000 Biso 0.000000
Pb157  Pb  0.747630  0.866670  0.200000 1.000000 Biso 0.000000
Pb158  Pb  0.747630  0.733330  0.233335 1.000000 Biso 0.000000
Pb159  Pb  0.747630  0.933330  0.266665 1.000000 Biso 0.000000
Pb160  Pb  0.747630  0.800000  0.300000 1.000000 Biso 0.000000
Pb161  Pb  0.747630  0.666670  0.333335 1.000000 Biso 0.000000
Pb162  Pb  0.747630  0.866670  0.366665 1.000000 Biso 0.000000
Pb163  Pb  0.747630  0.733330  0.400000 1.000000 Biso 0.000000
Pb164  Pb  0.747630  0.933330  0.433335 1.000000 Biso 0.000000
Pb165  Pb  0.747630  0.800000  0.466665 1.000000 Biso 0.000000
Ti151  Ti  0.612770  0.766670  0.016665 1.000000 Biso 0.000000
Ti152  Ti  0.612770  0.966670  0.050000 1.000000 Biso 0.000000
Ti153  Ti  0.612770  0.833330  0.083335 1.000000 Biso 0.000000
Ti154  Ti  0.612770  0.700000  0.116665 1.000000 Biso 0.000000
Ti155  Ti  0.612770  0.900000  0.150000 1.000000 Biso 0.000000
Ti156  Ti  0.612770  0.766670  0.183335 1.000000 Biso 0.000000
Ti157  Ti  0.612770  0.966670  0.216665 1.000000 Biso 0.000000
Ti158  Ti  0.612770  0.833330  0.250000 1.000000 Biso 0.000000
Ti159  Ti  0.612770  0.700000  0.283335 1.000000 Biso 0.000000
Ti160  Ti  0.612770  0.900000  0.316665 1.000000 Biso 0.000000
Ti161  Ti  0.612770  0.766670  0.350000 1.000000 Biso 0.000000
Ti162  Ti  0.612770  0.966670  0.383335 1.000000 Biso 0.000000
Ti163  Ti  0.612770  0.833330  0.416665 1.000000 Biso 0.000000
Ti164  Ti  0.612770  0.700000  0.450000 1.000000 Biso 0.000000
Ti165  Ti  0.612770  0.900000  0.483335 1.000000 Biso 0.000000
O451  O  0.594600  0.933330  0.016665 1.000000 Biso 0.000000
O452  O  0.594600  0.800000  0.050000 1.000000 Biso 0.000000
O453  O  0.594600  0.666670  0.083335 1.000000 Biso 0.000000
O454  O  0.594600  0.866670  0.116665 1.000000 Biso 0.000000
O455  O  0.594600  0.733330  0.150000 1.000000 Biso 0.000000
O456  O  0.594600  0.933330  0.183335 1.000000 Biso 0.000000
O457  O  0.594600  0.800000  0.216665 1.000000 Biso 0.000000
O458  O  0.594600  0.666670  0.250000 1.000000 Biso 0.000000
O459  O  0.594600  0.866670  0.283335 1.000000 Biso 0.000000
O460  O  0.594600  0.733330  0.316665 1.000000 Biso 0.000000
O461  O  0.594600  0.933330  0.350000 1.000000 Biso 0.000000
O462  O  0.594600  0.800000  0.383335 1.000000 Biso 0.000000
O463  O  0.594600  0.666670  0.416665 1.000000 Biso 0.000000
O464  O  0.594600  0.866670  0.450000 1.000000 Biso 0.000000
O465  O  0.594600  0.733330  0.483335 1.000000 Biso 0.000000
O466  O  0.594600  0.833330  0.000000 1.000000 Biso 0.000000
O467  O  0.594600  0.700000  0.033335 1.000000 Biso 0.000000
O468  O  0.594600  0.900000  0.066665 1.000000 Biso 0.000000
O469  O  0.594600  0.766670  0.100000 1.000000 Biso 0.000000
O470  O  0.594600  0.966670  0.133335 1.000000 Biso 0.000000
O471  O  0.594600  0.833330  0.166665 1.000000 Biso 0.000000
O472  O  0.594600  0.700000  0.200000 1.000000 Biso 0.000000
O473  O  0.594600  0.900000  0.233335 1.000000 Biso 0.000000
O474  O  0.594600  0.766670  0.266665 1.000000 Biso 0.000000
O475  O  0.594600  0.966670  0.300000 1.000000 Biso 0.000000
O476  O  0.594600  0.833330  0.333335 1.000000 Biso 0.000000
O477  O  0.594600  0.700000  0.366665 1.000000 Biso 0.000000
O478  O  0.594600  0.900000  0.400000 1.000000 Biso 0.000000
O479  O  0.594600  0.766670  0.433335 1.000000 Biso 0.000000
O480  O  0.594600  0.966670  0.466665 1.000000 Biso 0.000000
O481  O  0.723430  0.766670  0.016665 1.000000 Biso 0.000000
O482  O  0.723430  0.966670  0.050000 1.000000 Biso 0.000000
O483  O  0.723430  0.833330  0.083335 1.000000 Biso 0.000000
O484  O  0.723430  0.700000  0.116665 1.000000 Biso 0.000000
O485  O  0.723430  0.900000  0.150000 1.000000 Biso 0.000000
O486  O  0.723430  0.766670  0.183335 1.000000 Biso 0.000000
O487  O  0.723430  0.966670  0.216665 1.000000 Biso 0.000000
O488  O  0.723430  0.833330  0.250000 1.000000 Biso 0.000000
O489  O  0.723430  0.700000  0.283335 1.000000 Biso 0.000000
O490  O  0.723430  0.900000  0.316665 1.000000 Biso 0.000000
O491  O  0.723430  0.766670  0.350000 1.000000 Biso 0.000000
O492  O  0.723430  0.966670  0.383335 1.000000 Biso 0.000000
O493  O  0.723430  0.833330  0.416665 1.000000 Biso 0.000000
O494  O  0.723430  0.700000  0.450000 1.000000 Biso 0.000000
O495  O  0.723430  0.900000  0.483335 1.000000 Biso 0.000000
Pb166  Pb  0.997630  0.666670  0.000000 1.000000 Biso 0.000000
Pb167  Pb  0.997630  0.866670  0.033335 1.000000 Biso 0.000000
Pb168  Pb  0.997630  0.733330  0.066665 1.000000 Biso 0.000000
Pb169  Pb  0.997630  0.933330  0.100000 1.000000 Biso 0.000000
Pb170  Pb  0.997630  0.800000  0.133335 1.000000 Biso 0.000000
Pb171  Pb  0.997630  0.666670  0.166665 1.000000 Biso 0.000000
Pb172  Pb  0.997630  0.866670  0.200000 1.000000 Biso 0.000000
Pb173  Pb  0.997630  0.733330  0.233335 1.000000 Biso 0.000000
Pb174  Pb  0.997630  0.933330  0.266665 1.000000 Biso 0.000000
Pb175  Pb  0.997630  0.800000  0.300000 1.000000 Biso 0.000000
Pb176  Pb  0.997630  0.666670  0.333335 1.000000 Biso 0.000000
Pb177  Pb  0.997630  0.866670  0.366665 1.000000 Biso 0.000000
Pb178  Pb  0.997630  0.733330  0.400000 1.000000 Biso 0.000000
Pb179  Pb  0.997630  0.933330  0.433335 1.000000 Biso 0.000000
Pb180  Pb  0.997630  0.800000  0.466665 1.000000 Biso 0.000000
Ti166  Ti  0.862770  0.766670  0.016665 1.000000 Biso 0.000000
Ti167  Ti  0.862770  0.966670  0.050000 1.000000 Biso 0.000000
Ti168  Ti  0.862770  0.833330  0.083335 1.000000 Biso 0.000000
Ti169  Ti  0.862770  0.700000  0.116665 1.000000 Biso 0.000000
Ti170  Ti  0.862770  0.900000  0.150000 1.000000 Biso 0.000000
Ti171  Ti  0.862770  0.766670  0.183335 1.000000 Biso 0.000000
Ti172  Ti  0.862770  0.966670  0.216665 1.000000 Biso 0.000000
Ti173  Ti  0.862770  0.833330  0.250000 1.000000 Biso 0.000000
Ti174  Ti  0.862770  0.700000  0.283335 1.000000 Biso 0.000000
Ti175  Ti  0.862770  0.900000  0.316665 1.000000 Biso 0.000000
Ti176  Ti  0.862770  0.766670  0.350000 1.000000 Biso 0.000000
Ti177  Ti  0.862770  0.966670  0.383335 1.000000 Biso 0.000000
Ti178  Ti  0.862770  0.833330  0.416665 1.000000 Biso 0.000000
Ti179  Ti  0.862770  0.700000  0.450000 1.000000 Biso 0.000000
Ti180  Ti  0.862770  0.900000  0.483335 1.000000 Biso 0.000000
O496  O  0.844600  0.933330  0.016665 1.000000 Biso 0.000000
O497  O  0.844600  0.800000  0.050000 1.000000 Biso 0.000000
O498  O  0.844600  0.666670  0.083335 1.000000 Biso 0.000000
O499  O  0.844600  0.866670  0.116665 1.000000 Biso 0.000000
O500  O  0.844600  0.733330  0.150000 1.000000 Biso 0.000000
O501  O  0.844600  0.933330  0.183335 1.000000 Biso 0.000000
O502  O  0.844600  0.800000  0.216665 1.000000 Biso 0.000000
O503  O  0.844600  0.666670  0.250000 1.000000 Biso 0.000000
O504  O  0.844600  0.866670  0.283335 1.000000 Biso 0.000000
O505  O  0.844600  0.733330  0.316665 1.000000 Biso 0.000000
O506  O  0.844600  0.933330  0.350000 1.000000 Biso 0.000000
O507  O  0.844600  0.800000  0.383335 1.000000 Biso 0.000000
O508  O  0.844600  0.666670  0.416665 1.000000 Biso 0.000000
O509  O  0.844600  0.866670  0.450000 1.000000 Biso 0.000000
O510  O  0.844600  0.733330  0.483335 1.000000 Biso 0.000000
O511  O  0.844600  0.833330  0.000000 1.000000 Biso 0.000000
O512  O  0.844600  0.700000  0.033335 1.000000 Biso 0.000000
O513  O  0.844600  0.900000  0.066665 1.000000 Biso 0.000000
O514  O  0.844600  0.766670  0.100000 1.000000 Biso 0.000000
O515  O  0.844600  0.966670  0.133335 1.000000 Biso 0.000000
O516  O  0.844600  0.833330  0.166665 1.000000 Biso 0.000000
O517  O  0.844600  0.700000  0.200000 1.000000 Biso 0.000000
O518  O  0.844600  0.900000  0.233335 1.000000 Biso 0.000000
O519  O  0.844600  0.766670  0.266665 1.000000 Biso 0.000000
O520  O  0.844600  0.966670  0.300000 1.000000 Biso 0.000000
O521  O  0.844600  0.833330  0.333335 1.000000 Biso 0.000000
O522  O  0.844600  0.700000  0.366665 1.000000 Biso 0.000000
O523  O  0.844600  0.900000  0.400000 1.000000 Biso 0.000000
O524  O  0.844600  0.766670  0.433335 1.000000 Biso 0.000000
O525  O  0.844600  0.966670  0.466665 1.000000 Biso 0.000000
O526  O  0.973430  0.766670  0.016665 1.000000 Biso 0.000000
O527  O  0.973430  0.966670  0.050000 1.000000 Biso 0.000000
O528  O  0.973430  0.833330  0.083335 1.000000 Biso 0.000000
O529  O  0.973430  0.700000  0.116665 1.000000 Biso 0.000000
O530  O  0.973430  0.900000  0.150000 1.000000 Biso 0.000000
O531  O  0.973430  0.766670  0.183335 1.000000 Biso 0.000000
O532  O  0.973430  0.966670  0.216665 1.000000 Biso 0.000000
O533  O  0.973430  0.833330  0.250000 1.000000 Biso 0.000000
O534  O  0.973430  0.700000  0.283335 1.000000 Biso 0.000000
O535  O  0.973430  0.900000  0.316665 1.000000 Biso 0.000000
O536  O  0.973430  0.766670  0.350000 1.000000 Biso 0.000000
O537  O  0.973430  0.966670  0.383335 1.000000 Biso 0.000000
O538  O  0.973430  0.833330  0.416665 1.000000 Biso 0.000000
O539  O  0.973430  0.700000  0.450000 1.000000 Biso 0.000000
O540  O  0.973430  0.900000  0.483335 1.000000 Biso 0.000000
Pb181  Pb  0.247630  0.000000  0.500000 1.000000 Biso 0.000000
Pb182  Pb  0.247630  0.200000  0.966665 1.000000 Biso 0.000000
Pb183  Pb  0.247630  0.066670  0.933335 1.000000 Biso 0.000000
Pb184  Pb  0.247630  0.266670  0.900000 1.000000 Biso 0.000000
Pb185  Pb  0.247630  0.133330  0.866665 1.000000 Biso 0.000000
Pb186  Pb  0.247630  0.000000  0.833335 1.000000 Biso 0.000000
Pb187  Pb  0.247630  0.200000  0.800000 1.000000 Biso 0.000000
Pb188  Pb  0.247630  0.066670  0.766665 1.000000 Biso 0.000000
Pb189  Pb  0.247630  0.266670  0.733335 1.000000 Biso 0.000000
Pb190  Pb  0.247630  0.133330  0.700000 1.000000 Biso 0.000000
Pb191  Pb  0.247630  1.000000  0.666665 1.000000 Biso 0.000000
Pb192  Pb  0.247630  0.200000  0.633335 1.000000 Biso 0.000000
Pb193  Pb  0.247630  0.066670  0.600000 1.000000 Biso 0.000000
Pb194  Pb  0.247630  0.266670  0.566665 1.000000 Biso 0.000000
Pb195  Pb  0.247630  0.133330  0.533335 1.000000 Biso 0.000000
Ti181  Ti  0.112770  0.100000  0.983335 1.000000 Biso 0.000000
Ti182  Ti  0.112770  0.300000  0.950000 1.000000 Biso 0.000000
Ti183  Ti  0.112770  0.166670  0.916665 1.000000 Biso 0.000000
Ti184  Ti  0.112770  0.033330  0.883335 1.000000 Biso 0.000000
Ti185  Ti  0.112770  0.233330  0.850000 1.000000 Biso 0.000000
Ti186  Ti  0.112770  0.100000  0.816665 1.000000 Biso 0.000000
Ti187  Ti  0.112770  0.300000  0.783335 1.000000 Biso 0.000000
Ti188  Ti  0.112770  0.166670  0.750000 1.000000 Biso 0.000000
Ti189  Ti  0.112770  0.033330  0.716665 1.000000 Biso 0.000000
Ti190  Ti  0.112770  0.233330  0.683335 1.000000 Biso 0.000000
Ti191  Ti  0.112770  0.100000  0.650000 1.000000 Biso 0.000000
Ti192  Ti  0.112770  0.300000  0.616665 1.000000 Biso 0.000000
Ti193  Ti  0.112770  0.166670  0.583335 1.000000 Biso 0.000000
Ti194  Ti  0.112770  0.033330  0.550000 1.000000 Biso 0.000000
Ti195  Ti  0.112770  0.233330  0.516665 1.000000 Biso 0.000000
O541  O  0.094600  0.266670  0.983335 1.000000 Biso 0.000000
O542  O  0.094600  0.133330  0.950000 1.000000 Biso 0.000000
O543  O  0.094600 -0.000000  0.916665 1.000000 Biso 0.000000
O544  O  0.094600  0.200000  0.883335 1.000000 Biso 0.000000
O545  O  0.094600  0.066670  0.850000 1.000000 Biso 0.000000
O546  O  0.094600  0.266670  0.816665 1.000000 Biso 0.000000
O547  O  0.094600  0.133330  0.783335 1.000000 Biso 0.000000
O548  O  0.094600 -0.000000  0.750000 1.000000 Biso 0.000000
O549  O  0.094600  0.200000  0.716665 1.000000 Biso 0.000000
O550  O  0.094600  0.066670  0.683335 1.000000 Biso 0.000000
O551  O  0.094600  0.266670  0.650000 1.000000 Biso 0.000000
O552  O  0.094600  0.133330  0.616665 1.000000 Biso 0.000000
O553  O  0.094600  1.000000  0.583335 1.000000 Biso 0.000000
O554  O  0.094600  0.200000  0.550000 1.000000 Biso 0.000000
O555  O  0.094600  0.066670  0.516665 1.000000 Biso 0.000000
O556  O  0.094600  0.166670  0.500000 1.000000 Biso 0.000000
O557  O  0.094600  0.033330  0.966665 1.000000 Biso 0.000000
O558  O  0.094600  0.233330  0.933335 1.000000 Biso 0.000000
O559  O  0.094600  0.100000  0.900000 1.000000 Biso 0.000000
O560  O  0.094600  0.300000  0.866665 1.000000 Biso 0.000000
O561  O  0.094600  0.166670  0.833335 1.000000 Biso 0.000000
O562  O  0.094600  0.033330  0.800000 1.000000 Biso 0.000000
O563  O  0.094600  0.233330  0.766665 1.000000 Biso 0.000000
O564  O  0.094600  0.100000  0.733335 1.000000 Biso 0.000000
O565  O  0.094600  0.300000  0.700000 1.000000 Biso 0.000000
O566  O  0.094600  0.166670  0.666665 1.000000 Biso 0.000000
O567  O  0.094600  0.033330  0.633335 1.000000 Biso 0.000000
O568  O  0.094600  0.233330  0.600000 1.000000 Biso 0.000000
O569  O  0.094600  0.100000  0.566665 1.000000 Biso 0.000000
O570  O  0.094600  0.300000  0.533335 1.000000 Biso 0.000000
O571  O  0.223430  0.100000  0.983335 1.000000 Biso 0.000000
O572  O  0.223430  0.300000  0.950000 1.000000 Biso 0.000000
O573  O  0.223430  0.166670  0.916665 1.000000 Biso 0.000000
O574  O  0.223430  0.033330  0.883335 1.000000 Biso 0.000000
O575  O  0.223430  0.233330  0.850000 1.000000 Biso 0.000000
O576  O  0.223430  0.100000  0.816665 1.000000 Biso 0.000000
O577  O  0.223430  0.300000  0.783335 1.000000 Biso 0.000000
O578  O  0.223430  0.166670  0.750000 1.000000 Biso 0.000000
O579  O  0.223430  0.033330  0.716665 1.000000 Biso 0.000000
O580  O  0.223430  0.233330  0.683335 1.000000 Biso 0.000000
O581  O  0.223430  0.100000  0.650000 1.000000 Biso 0.000000
O582  O  0.223430  0.300000  0.616665 1.000000 Biso 0.000000
O583  O  0.223430  0.166670  0.583335 1.000000 Biso 0.000000
O584  O  0.223430  0.033330  0.550000 1.000000 Biso 0.000000
O585  O  0.223430  0.233330  0.516665 1.000000 Biso 0.000000
Pb196  Pb  0.497630  0.000000  0.500000 1.000000 Biso 0.000000
Pb197  Pb  0.497630  0.200000  0.966665 1.000000 Biso 0.000000
Pb198  Pb  0.497630  0.066670  0.933335 1.000000 Biso 0.000000
Pb199  Pb  0.497630  0.266670  0.900000 1.000000 Biso 0.000000
Pb200  Pb  0.497630  0.133330  0.866665 1.000000 Biso 0.000000
Pb201  Pb  0.497630  0.000000  0.833335 1.000000 Biso 0.000000
Pb202  Pb  0.497630  0.200000  0.800000 1.000000 Biso 0.000000
Pb203  Pb  0.497630  0.066670  0.766665 1.000000 Biso 0.000000
Pb204  Pb  0.497630  0.266670  0.733335 1.000000 Biso 0.000000
Pb205  Pb  0.497630  0.133330  0.700000 1.000000 Biso 0.000000
Pb206  Pb  0.497630  1.000000  0.666665 1.000000 Biso 0.000000
Pb207  Pb  0.497630  0.200000  0.633335 1.000000 Biso 0.000000
Pb208  Pb  0.497630  0.066670  0.600000 1.000000 Biso 0.000000
Pb209  Pb  0.497630  0.266670  0.566665 1.000000 Biso 0.000000
Pb210  Pb  0.497630  0.133330  0.533335 1.000000 Biso 0.000000
Ti196  Ti  0.362770  0.100000  0.983335 1.000000 Biso 0.000000
Ti197  Ti  0.362770  0.300000  0.950000 1.000000 Biso 0.000000
Ti198  Ti  0.362770  0.166670  0.916665 1.000000 Biso 0.000000
Ti199  Ti  0.362770  0.033330  0.883335 1.000000 Biso 0.000000
Ti200  Ti  0.362770  0.233330  0.850000 1.000000 Biso 0.000000
Ti201  Ti  0.362770  0.100000  0.816665 1.000000 Biso 0.000000
Ti202  Ti  0.362770  0.300000  0.783335 1.000000 Biso 0.000000
Ti203  Ti  0.362770  0.166670  0.750000 1.000000 Biso 0.000000
Ti204  Ti  0.362770  0.033330  0.716665 1.000000 Biso 0.000000
Ti205  Ti  0.362770  0.233330  0.683335 1.000000 Biso 0.000000
Ti206  Ti  0.362770  0.100000  0.650000 1.000000 Biso 0.000000
Ti207  Ti  0.362770  0.300000  0.616665 1.000000 Biso 0.000000
Ti208  Ti  0.362770  0.166670  0.583335 1.000000 Biso 0.000000
Ti209  Ti  0.362770  0.033330  0.550000 1.000000 Biso 0.000000
Ti210  Ti  0.362770  0.233330  0.516665 1.000000 Biso 0.000000
O586  O  0.344600  0.266670  0.983335 1.000000 Biso 0.000000
O587  O  0.344600  0.133330  0.950000 1.000000 Biso 0.000000
O588  O  0.344600 -0.000000  0.916665 1.000000 Biso 0.000000
O589  O  0.344600  0.200000  0.883335 1.000000 Biso 0.000000
O590  O  0.344600  0.066670  0.850000 1.000000 Biso 0.000000
O591  O  0.344600  0.266670  0.816665 1.000000 Biso 0.000000
O592  O  0.344600  0.133330  0.783335 1.000000 Biso 0.000000
O593  O  0.344600 -0.000000  0.750000 1.000000 Biso 0.000000
O594  O  0.344600  0.200000  0.716665 1.000000 Biso 0.000000
O595  O  0.344600  0.066670  0.683335 1.000000 Biso 0.000000
O596  O  0.344600  0.266670  0.650000 1.000000 Biso 0.000000
O597  O  0.344600  0.133330  0.616665 1.000000 Biso 0.000000
O598  O  0.344600  1.000000  0.583335 1.000000 Biso 0.000000
O599  O  0.344600  0.200000  0.550000 1.000000 Biso 0.000000
O600  O  0.344600  0.066670  0.516665 1.000000 Biso 0.000000
O601  O  0.344600  0.166670  0.500000 1.000000 Biso 0.000000
O602  O  0.344600  0.033330  0.966665 1.000000 Biso 0.000000
O603  O  0.344600  0.233330  0.933335 1.000000 Biso 0.000000
O604  O  0.344600  0.100000  0.900000 1.000000 Biso 0.000000
O605  O  0.344600  0.300000  0.866665 1.000000 Biso 0.000000
O606  O  0.344600  0.166670  0.833335 1.000000 Biso 0.000000
O607  O  0.344600  0.033330  0.800000 1.000000 Biso 0.000000
O608  O  0.344600  0.233330  0.766665 1.000000 Biso 0.000000
O609  O  0.344600  0.100000  0.733335 1.000000 Biso 0.000000
O610  O  0.344600  0.300000  0.700000 1.000000 Biso 0.000000
O611  O  0.344600  0.166670  0.666665 1.000000 Biso 0.000000
O612  O  0.344600  0.033330  0.633335 1.000000 Biso 0.000000
O613  O  0.344600  0.233330  0.600000 1.000000 Biso 0.000000
O614  O  0.344600  0.100000  0.566665 1.000000 Biso 0.000000
O615  O  0.344600  0.300000  0.533335 1.000000 Biso 0.000000
O616  O  0.473430  0.100000  0.983335 1.000000 Biso 0.000000
O617  O  0.473430  0.300000  0.950000 1.000000 Biso 0.000000
O618  O  0.473430  0.166670  0.916665 1.000000 Biso 0.000000
O619  O  0.473430  0.033330  0.883335 1.000000 Biso 0.000000
O620  O  0.473430  0.233330  0.850000 1.000000 Biso 0.000000
O621  O  0.473430  0.100000  0.816665 1.000000 Biso 0.000000
O622  O  0.473430  0.300000  0.783335 1.000000 Biso 0.000000
O623  O  0.473430  0.166670  0.750000 1.000000 Biso 0.000000
O624  O  0.473430  0.033330  0.716665 1.000000 Biso 0.000000
O625  O  0.473430  0.233330  0.683335 1.000000 Biso 0.000000
O626  O  0.473430  0.100000  0.650000 1.000000 Biso 0.000000
O627  O  0.473430  0.300000  0.616665 1.000000 Biso 0.000000
O628  O  0.473430  0.166670  0.583335 1.000000 Biso 0.000000
O629  O  0.473430  0.033330  0.550000 1.000000 Biso 0.000000
O630  O  0.473430  0.233330  0.516665 1.000000 Biso 0.000000
Pb211  Pb  0.747630  0.000000  0.500000 1.000000 Biso 0.000000
Pb212  Pb  0.747630  0.200000  0.966665 1.000000 Biso 0.000000
Pb213  Pb  0.747630  0.066670  0.933335 1.000000 Biso 0.000000
Pb214  Pb  0.747630  0.266670  0.900000 1.000000 Biso 0.000000
Pb215  Pb  0.747630  0.133330  0.866665 1.000000 Biso 0.000000
Pb216  Pb  0.747630  0.000000  0.833335 1.000000 Biso 0.000000
Pb217  Pb  0.747630  0.200000  0.800000 1.000000 Biso 0.000000
Pb218  Pb  0.747630  0.066670  0.766665 1.000000 Biso 0.000000
Pb219  Pb  0.747630  0.266670  0.733335 1.000000 Biso 0.000000
Pb220  Pb  0.747630  0.133330  0.700000 1.000000 Biso 0.000000
Pb221  Pb  0.747630  1.000000  0.666665 1.000000 Biso 0.000000
Pb222  Pb  0.747630  0.200000  0.633335 1.000000 Biso 0.000000
Pb223  Pb  0.747630  0.066670  0.600000 1.000000 Biso 0.000000
Pb224  Pb  0.747630  0.266670  0.566665 1.000000 Biso 0.000000
Pb225  Pb  0.747630  0.133330  0.533335 1.000000 Biso 0.000000
Ti211  Ti  0.612770  0.100000  0.983335 1.000000 Biso 0.000000
Ti212  Ti  0.612770  0.300000  0.950000 1.000000 Biso 0.000000
Ti213  Ti  0.612770  0.166670  0.916665 1.000000 Biso 0.000000
Ti214  Ti  0.612770  0.033330  0.883335 1.000000 Biso 0.000000
Ti215  Ti  0.612770  0.233330  0.850000 1.000000 Biso 0.000000
Ti216  Ti  0.612770  0.100000  0.816665 1.000000 Biso 0.000000
Ti217  Ti  0.612770  0.300000  0.783335 1.000000 Biso 0.000000
Ti218  Ti  0.612770  0.166670  0.750000 1.000000 Biso 0.000000
Ti219  Ti  0.612770  0.033330  0.716665 1.000000 Biso 0.000000
Ti220  Ti  0.612770  0.233330  0.683335 1.000000 Biso 0.000000
Ti221  Ti  0.612770  0.100000  0.650000 1.000000 Biso 0.000000
Ti222  Ti  0.612770  0.300000  0.616665 1.000000 Biso 0.000000
Ti223  Ti  0.612770  0.166670  0.583335 1.000000 Biso 0.000000
Ti224  Ti  0.612770  0.033330  0.550000 1.000000 Biso 0.000000
Ti225  Ti  0.612770  0.233330  0.516665 1.000000 Biso 0.000000
O631  O  0.594600  0.266670  0.983335 1.000000 Biso 0.000000
O632  O  0.594600  0.133330  0.950000 1.000000 Biso 0.000000
O633  O  0.594600 -0.000000  0.916665 1.000000 Biso 0.000000
O634  O  0.594600  0.200000  0.883335 1.000000 Biso 0.000000
O635  O  0.594600  0.066670  0.850000 1.000000 Biso 0.000000
O636  O  0.594600  0.266670  0.816665 1.000000 Biso 0.000000
O637  O  0.594600  0.133330  0.783335 1.000000 Biso 0.000000
O638  O  0.594600 -0.000000  0.750000 1.000000 Biso 0.000000
O639  O  0.594600  0.200000  0.716665 1.000000 Biso 0.000000
O640  O  0.594600  0.066670  0.683335 1.000000 Biso 0.000000
O641  O  0.594600  0.266670  0.650000 1.000000 Biso 0.000000
O642  O  0.594600  0.133330  0.616665 1.000000 Biso 0.000000
O643  O  0.594600  1.000000  0.583335 1.000000 Biso 0.000000
O644  O  0.594600  0.200000  0.550000 1.000000 Biso 0.000000
O645  O  0.594600  0.066670  0.516665 1.000000 Biso 0.000000
O646  O  0.594600  0.166670  0.500000 1.000000 Biso 0.000000
O647  O  0.594600  0.033330  0.966665 1.000000 Biso 0.000000
O648  O  0.594600  0.233330  0.933335 1.000000 Biso 0.000000
O649  O  0.594600  0.100000  0.900000 1.000000 Biso 0.000000
O650  O  0.594600  0.300000  0.866665 1.000000 Biso 0.000000
O651  O  0.594600  0.166670  0.833335 1.000000 Biso 0.000000
O652  O  0.594600  0.033330  0.800000 1.000000 Biso 0.000000
O653  O  0.594600  0.233330  0.766665 1.000000 Biso 0.000000
O654  O  0.594600  0.100000  0.733335 1.000000 Biso 0.000000
O655  O  0.594600  0.300000  0.700000 1.000000 Biso 0.000000
O656  O  0.594600  0.166670  0.666665 1.000000 Biso 0.000000
O657  O  0.594600  0.033330  0.633335 1.000000 Biso 0.000000
O658  O  0.594600  0.233330  0.600000 1.000000 Biso 0.000000
O659  O  0.594600  0.100000  0.566665 1.000000 Biso 0.000000
O660  O  0.594600  0.300000  0.533335 1.000000 Biso 0.000000
O661  O  0.723430  0.100000  0.983335 1.000000 Biso 0.000000
O662  O  0.723430  0.300000  0.950000 1.000000 Biso 0.000000
O663  O  0.723430  0.166670  0.916665 1.000000 Biso 0.000000
O664  O  0.723430  0.033330  0.883335 1.000000 Biso 0.000000
O665  O  0.723430  0.233330  0.850000 1.000000 Biso 0.000000
O666  O  0.723430  0.100000  0.816665 1.000000 Biso 0.000000
O667  O  0.723430  0.300000  0.783335 1.000000 Biso 0.000000
O668  O  0.723430  0.166670  0.750000 1.000000 Biso 0.000000
O669  O  0.723430  0.033330  0.716665 1.000000 Biso 0.000000
O670  O  0.723430  0.233330  0.683335 1.000000 Biso 0.000000
O671  O  0.723430  0.100000  0.650000 1.000000 Biso 0.000000
O672  O  0.723430  0.300000  0.616665 1.000000 Biso 0.000000
O673  O  0.723430  0.166670  0.583335 1.000000 Biso 0.000000
O674  O  0.723430  0.033330  0.550000 1.000000 Biso 0.000000
O675  O  0.723430  0.233330  0.516665 1.000000 Biso 0.000000
Pb226  Pb  0.997630  0.000000  0.500000 1.000000 Biso 0.000000
Pb227  Pb  0.997630  0.200000  0.966665 1.000000 Biso 0.000000
Pb228  Pb  0.997630  0.066670  0.933335 1.000000 Biso 0.000000
Pb229  Pb  0.997630  0.266670  0.900000 1.000000 Biso 0.000000
Pb230  Pb  0.997630  0.133330  0.866665 1.000000 Biso 0.000000
Pb231  Pb  0.997630  0.000000  0.833335 1.000000 Biso 0.000000
Pb232  Pb  0.997630  0.200000  0.800000 1.000000 Biso 0.000000
Pb233  Pb  0.997630  0.066670  0.766665 1.000000 Biso 0.000000
Pb234  Pb  0.997630  0.266670  0.733335 1.000000 Biso 0.000000
Pb235  Pb  0.997630  0.133330  0.700000 1.000000 Biso 0.000000
Pb236  Pb  0.997630  1.000000  0.666665 1.000000 Biso 0.000000
Pb237  Pb  0.997630  0.200000  0.633335 1.000000 Biso 0.000000
Pb238  Pb  0.997630  0.066670  0.600000 1.000000 Biso 0.000000
Pb239  Pb  0.997630  0.266670  0.566665 1.000000 Biso 0.000000
Pb240  Pb  0.997630  0.133330  0.533335 1.000000 Biso 0.000000
Ti226  Ti  0.862770  0.100000  0.983335 1.000000 Biso 0.000000
Ti227  Ti  0.862770  0.300000  0.950000 1.000000 Biso 0.000000
Ti228  Ti  0.862770  0.166670  0.916665 1.000000 Biso 0.000000
Ti229  Ti  0.862770  0.033330  0.883335 1.000000 Biso 0.000000
Ti230  Ti  0.862770  0.233330  0.850000 1.000000 Biso 0.000000
Ti231  Ti  0.862770  0.100000  0.816665 1.000000 Biso 0.000000
Ti232  Ti  0.862770  0.300000  0.783335 1.000000 Biso 0.000000
Ti233  Ti  0.862770  0.166670  0.750000 1.000000 Biso 0.000000
Ti234  Ti  0.862770  0.033330  0.716665 1.000000 Biso 0.000000
Ti235  Ti  0.862770  0.233330  0.683335 1.000000 Biso 0.000000
Ti236  Ti  0.862770  0.100000  0.650000 1.000000 Biso 0.000000
Ti237  Ti  0.862770  0.300000  0.616665 1.000000 Biso 0.000000
Ti238  Ti  0.862770  0.166670  0.583335 1.000000 Biso 0.000000
Ti239  Ti  0.862770  0.033330  0.550000 1.000000 Biso 0.000000
Ti240  Ti  0.862770  0.233330  0.516665 1.000000 Biso 0.000000
O676  O  0.844600  0.266670  0.983335 1.000000 Biso 0.000000
O677  O  0.844600  0.133330  0.950000 1.000000 Biso 0.000000
O678  O  0.844600 -0.000000  0.916665 1.000000 Biso 0.000000
O679  O  0.844600  0.200000  0.883335 1.000000 Biso 0.000000
O680  O  0.844600  0.066670  0.850000 1.000000 Biso 0.000000
O681  O  0.844600  0.266670  0.816665 1.000000 Biso 0.000000
O682  O  0.844600  0.133330  0.783335 1.000000 Biso 0.000000
O683  O  0.844600 -0.000000  0.750000 1.000000 Biso 0.000000
O684  O  0.844600  0.200000  0.716665 1.000000 Biso 0.000000
O685  O  0.844600  0.066670  0.683335 1.000000 Biso 0.000000
O686  O  0.844600  0.266670  0.650000 1.000000 Biso 0.000000
O687  O  0.844600  0.133330  0.616665 1.000000 Biso 0.000000
O688  O  0.844600  1.000000  0.583335 1.000000 Biso 0.000000
O689  O  0.844600  0.200000  0.550000 1.000000 Biso 0.000000
O690  O  0.844600  0.066670  0.516665 1.000000 Biso 0.000000
O691  O  0.844600  0.166670  0.500000 1.000000 Biso 0.000000
O692  O  0.844600  0.033330  0.966665 1.000000 Biso 0.000000
O693  O  0.844600  0.233330  0.933335 1.000000 Biso 0.000000
O694  O  0.844600  0.100000  0.900000 1.000000 Biso 0.000000
O695  O  0.844600  0.300000  0.866665 1.000000 Biso 0.000000
O696  O  0.844600  0.166670  0.833335 1.000000 Biso 0.000000
O697  O  0.844600  0.033330  0.800000 1.000000 Biso 0.000000
O698  O  0.844600  0.233330  0.766665 1.000000 Biso 0.000000
O699  O  0.844600  0.100000  0.733335 1.000000 Biso 0.000000
O700  O  0.844600  0.300000  0.700000 1.000000 Biso 0.000000
O701  O  0.844600  0.166670  0.666665 1.000000 Biso 0.000000
O702  O  0.844600  0.033330  0.633335 1.000000 Biso 0.000000
O703  O  0.844600  0.233330  0.600000 1.000000 Biso 0.000000
O704  O  0.844600  0.100000  0.566665 1.000000 Biso 0.000000
O705  O  0.844600  0.300000  0.533335 1.000000 Biso 0.000000
O706  O  0.973430  0.100000  0.983335 1.000000 Biso 0.000000
O707  O  0.973430  0.300000  0.950000 1.000000 Biso 0.000000
O708  O  0.973430  0.166670  0.916665 1.000000 Biso 0.000000
O709  O  0.973430  0.033330  0.883335 1.000000 Biso 0.000000
O710  O  0.973430  0.233330  0.850000 1.000000 Biso 0.000000
O711  O  0.973430  0.100000  0.816665 1.000000 Biso 0.000000
O712  O  0.973430  0.300000  0.783335 1.000000 Biso 0.000000
O713  O  0.973430  0.166670  0.750000 1.000000 Biso 0.000000
O714  O  0.973430  0.033330  0.716665 1.000000 Biso 0.000000
O715  O  0.973430  0.233330  0.683335 1.000000 Biso 0.000000
O716  O  0.973430  0.100000  0.650000 1.000000 Biso 0.000000
O717  O  0.973430  0.300000  0.616665 1.000000 Biso 0.000000
O718  O  0.973430  0.166670  0.583335 1.000000 Biso 0.000000
O719  O  0.973430  0.033330  0.550000 1.000000 Biso 0.000000
O720  O  0.973430  0.233330  0.516665 1.000000 Biso 0.000000
Pb241  Pb  0.247630  0.333330  0.500000 1.000000 Biso 0.000000
Pb242  Pb  0.247630  0.533330  0.966665 1.000000 Biso 0.000000
Pb243  Pb  0.247630  0.400000  0.933335 1.000000 Biso 0.000000
Pb244  Pb  0.247630  0.600000  0.900000 1.000000 Biso 0.000000
Pb245  Pb  0.247630  0.466670  0.866665 1.000000 Biso 0.000000
Pb246  Pb  0.247630  0.333330  0.833335 1.000000 Biso 0.000000
Pb247  Pb  0.247630  0.533330  0.800000 1.000000 Biso 0.000000
Pb248  Pb  0.247630  0.400000  0.766665 1.000000 Biso 0.000000
Pb249  Pb  0.247630  0.600000  0.733335 1.000000 Biso 0.000000
Pb250  Pb  0.247630  0.466670  0.700000 1.000000 Biso 0.000000
Pb251  Pb  0.247630  0.333330  0.666665 1.000000 Biso 0.000000
Pb252  Pb  0.247630  0.533330  0.633335 1.000000 Biso 0.000000
Pb253  Pb  0.247630  0.400000  0.600000 1.000000 Biso 0.000000
Pb254  Pb  0.247630  0.600000  0.566665 1.000000 Biso 0.000000
Pb255  Pb  0.247630  0.466670  0.533335 1.000000 Biso 0.000000
Ti241  Ti  0.112770  0.433330  0.983335 1.000000 Biso 0.000000
Ti242  Ti  0.112770  0.633330  0.950000 1.000000 Biso 0.000000
Ti243  Ti  0.112770  0.500000  0.916665 1.000000 Biso 0.000000
Ti244  Ti  0.112770  0.366670  0.883335 1.000000 Biso 0.000000
Ti245  Ti  0.112770  0.566670  0.850000 1.000000 Biso 0.000000
Ti246  Ti  0.112770  0.433330  0.816665 1.000000 Biso 0.000000
Ti247  Ti  0.112770  0.633330  0.783335 1.000000 Biso 0.000000
Ti248  Ti  0.112770  0.500000  0.750000 1.000000 Biso 0.000000
Ti249  Ti  0.112770  0.366670  0.716665 1.000000 Biso 0.000000
Ti250  Ti  0.112770  0.566670  0.683335 1.000000 Biso 0.000000
Ti251  Ti  0.112770  0.433330  0.650000 1.000000 Biso 0.000000
Ti252  Ti  0.112770  0.633330  0.616665 1.000000 Biso 0.000000
Ti253  Ti  0.112770  0.500000  0.583335 1.000000 Biso 0.000000
Ti254  Ti  0.112770  0.366670  0.550000 1.000000 Biso 0.000000
Ti255  Ti  0.112770  0.566670  0.516665 1.000000 Biso 0.000000
O721  O  0.094600  0.600000  0.983335 1.000000 Biso 0.000000
O722  O  0.094600  0.466670  0.950000 1.000000 Biso 0.000000
O723  O  0.094600  0.333330  0.916665 1.000000 Biso 0.000000
O724  O  0.094600  0.533330  0.883335 1.000000 Biso 0.000000
O725  O  0.094600  0.400000  0.850000 1.000000 Biso 0.000000
O726  O  0.094600  0.600000  0.816665 1.000000 Biso 0.000000
O727  O  0.094600  0.466670  0.783335 1.000000 Biso 0.000000
O728  O  0.094600  0.333330  0.750000 1.000000 Biso 0.000000
O729  O  0.094600  0.533330  0.716665 1.000000 Biso 0.000000
O730  O  0.094600  0.400000  0.683335 1.000000 Biso 0.000000
O731  O  0.094600  0.600000  0.650000 1.000000 Biso 0.000000
O732  O  0.094600  0.466670  0.616665 1.000000 Biso 0.000000
O733  O  0.094600  0.333330  0.583335 1.000000 Biso 0.000000
O734  O  0.094600  0.533330  0.550000 1.000000 Biso 0.000000
O735  O  0.094600  0.400000  0.516665 1.000000 Biso 0.000000
O736  O  0.094600  0.500000  0.500000 1.000000 Biso 0.000000
O737  O  0.094600  0.366670  0.966665 1.000000 Biso 0.000000
O738  O  0.094600  0.566670  0.933335 1.000000 Biso 0.000000
O739  O  0.094600  0.433330  0.900000 1.000000 Biso 0.000000
O740  O  0.094600  0.633330  0.866665 1.000000 Biso 0.000000
O741  O  0.094600  0.500000  0.833335 1.000000 Biso 0.000000
O742  O  0.094600  0.366670  0.800000 1.000000 Biso 0.000000
O743  O  0.094600  0.566670  0.766665 1.000000 Biso 0.000000
O744  O  0.094600  0.433330  0.733335 1.000000 Biso 0.000000
O745  O  0.094600  0.633330  0.700000 1.000000 Biso 0.000000
O746  O  0.094600  0.500000  0.666665 1.000000 Biso 0.000000
O747  O  0.094600  0.366670  0.633335 1.000000 Biso 0.000000
O748  O  0.094600  0.566670  0.600000 1.000000 Biso 0.000000
O749  O  0.094600  0.433330  0.566665 1.000000 Biso 0.000000
O750  O  0.094600  0.633330  0.533335 1.000000 Biso 0.000000
O751  O  0.223430  0.433330  0.983335 1.000000 Biso 0.000000
O752  O  0.223430  0.633330  0.950000 1.000000 Biso 0.000000
O753  O  0.223430  0.500000  0.916665 1.000000 Biso 0.000000
O754  O  0.223430  0.366670  0.883335 1.000000 Biso 0.000000
O755  O  0.223430  0.566670  0.850000 1.000000 Biso 0.000000
O756  O  0.223430  0.433330  0.816665 1.000000 Biso 0.000000
O757  O  0.223430  0.633330  0.783335 1.000000 Biso 0.000000
O758  O  0.223430  0.500000  0.750000 1.000000 Biso 0.000000
O759  O  0.223430  0.366670  0.716665 1.000000 Biso 0.000000
O760  O  0.223430  0.566670  0.683335 1.000000 Biso 0.000000
O761  O  0.223430  0.433330  0.650000 1.000000 Biso 0.000000
O762  O  0.223430  0.633330  0.616665 1.000000 Biso 0.000000
O763  O  0.223430  0.500000  0.583335 1.000000 Biso 0.000000
O764  O  0.223430  0.366670  0.550000 1.000000 Biso 0.000000
O765  O  0.223430  0.566670  0.516665 1.000000 Biso 0.000000
Pb256  Pb  0.497630  0.333330  0.500000 1.000000 Biso 0.000000
Pb257  Pb  0.497630  0.533330  0.966665 1.000000 Biso 0.000000
Pb258  Pb  0.497630  0.400000  0.933335 1.000000 Biso 0.000000
Pb259  Pb  0.497630  0.600000  0.900000 1.000000 Biso 0.000000
Pb260  Pb  0.497630  0.466670  0.866665 1.000000 Biso 0.000000
Pb261  Pb  0.497630  0.333330  0.833335 1.000000 Biso 0.000000
Pb262  Pb  0.497630  0.533330  0.800000 1.000000 Biso 0.000000
Pb263  Pb  0.497630  0.400000  0.766665 1.000000 Biso 0.000000
Pb264  Pb  0.497630  0.600000  0.733335 1.000000 Biso 0.000000
Pb265  Pb  0.497630  0.466670  0.700000 1.000000 Biso 0.000000
Pb266  Pb  0.497630  0.333330  0.666665 1.000000 Biso 0.000000
Pb267  Pb  0.497630  0.533330  0.633335 1.000000 Biso 0.000000
Pb268  Pb  0.497630  0.400000  0.600000 1.000000 Biso 0.000000
Pb269  Pb  0.497630  0.600000  0.566665 1.000000 Biso 0.000000
Pb270  Pb  0.497630  0.466670  0.533335 1.000000 Biso 0.000000
Ti256  Ti  0.362770  0.433330  0.983335 1.000000 Biso 0.000000
Ti257  Ti  0.362770  0.633330  0.950000 1.000000 Biso 0.000000
Ti258  Ti  0.362770  0.500000  0.916665 1.000000 Biso 0.000000
Ti259  Ti  0.362770  0.366670  0.883335 1.000000 Biso 0.000000
Ti260  Ti  0.362770  0.566670  0.850000 1.000000 Biso 0.000000
Ti261  Ti  0.362770  0.433330  0.816665 1.000000 Biso 0.000000
Ti262  Ti  0.362770  0.633330  0.783335 1.000000 Biso 0.000000
Ti263  Ti  0.362770  0.500000  0.750000 1.000000 Biso 0.000000
Ti264  Ti  0.362770  0.366670  0.716665 1.000000 Biso 0.000000
Ti265  Ti  0.362770  0.566670  0.683335 1.000000 Biso 0.000000
Ti266  Ti  0.362770  0.433330  0.650000 1.000000 Biso 0.000000
Ti267  Ti  0.362770  0.633330  0.616665 1.000000 Biso 0.000000
Ti268  Ti  0.362770  0.500000  0.583335 1.000000 Biso 0.000000
Ti269  Ti  0.362770  0.366670  0.550000 1.000000 Biso 0.000000
Ti270  Ti  0.362770  0.566670  0.516665 1.000000 Biso 0.000000
O766  O  0.344600  0.600000  0.983335 1.000000 Biso 0.000000
O767  O  0.344600  0.466670  0.950000 1.000000 Biso 0.000000
O768  O  0.344600  0.333330  0.916665 1.000000 Biso 0.000000
O769  O  0.344600  0.533330  0.883335 1.000000 Biso 0.000000
O770  O  0.344600  0.400000  0.850000 1.000000 Biso 0.000000
O771  O  0.344600  0.600000  0.816665 1.000000 Biso 0.000000
O772  O  0.344600  0.466670  0.783335 1.000000 Biso 0.000000
O773  O  0.344600  0.333330  0.750000 1.000000 Biso 0.000000
O774  O  0.344600  0.533330  0.716665 1.000000 Biso 0.000000
O775  O  0.344600  0.400000  0.683335 1.000000 Biso 0.000000
O776  O  0.344600  0.600000  0.650000 1.000000 Biso 0.000000
O777  O  0.344600  0.466670  0.616665 1.000000 Biso 0.000000
O778  O  0.344600  0.333330  0.583335 1.000000 Biso 0.000000
O779  O  0.344600  0.533330  0.550000 1.000000 Biso 0.000000
O780  O  0.344600  0.400000  0.516665 1.000000 Biso 0.000000
O781  O  0.344600  0.500000  0.500000 1.000000 Biso 0.000000
O782  O  0.344600  0.366670  0.966665 1.000000 Biso 0.000000
O783  O  0.344600  0.566670  0.933335 1.000000 Biso 0.000000
O784  O  0.344600  0.433330  0.900000 1.000000 Biso 0.000000
O785  O  0.344600  0.633330  0.866665 1.000000 Biso 0.000000
O786  O  0.344600  0.500000  0.833335 1.000000 Biso 0.000000
O787  O  0.344600  0.366670  0.800000 1.000000 Biso 0.000000
O788  O  0.344600  0.566670  0.766665 1.000000 Biso 0.000000
O789  O  0.344600  0.433330  0.733335 1.000000 Biso 0.000000
O790  O  0.344600  0.633330  0.700000 1.000000 Biso 0.000000
O791  O  0.344600  0.500000  0.666665 1.000000 Biso 0.000000
O792  O  0.344600  0.366670  0.633335 1.000000 Biso 0.000000
O793  O  0.344600  0.566670  0.600000 1.000000 Biso 0.000000
O794  O  0.344600  0.433330  0.566665 1.000000 Biso 0.000000
O795  O  0.344600  0.633330  0.533335 1.000000 Biso 0.000000
O796  O  0.473430  0.433330  0.983335 1.000000 Biso 0.000000
O797  O  0.473430  0.633330  0.950000 1.000000 Biso 0.000000
O798  O  0.473430  0.500000  0.916665 1.000000 Biso 0.000000
O799  O  0.473430  0.366670  0.883335 1.000000 Biso 0.000000
O800  O  0.473430  0.566670  0.850000 1.000000 Biso 0.000000
O801  O  0.473430  0.433330  0.816665 1.000000 Biso 0.000000
O802  O  0.473430  0.633330  0.783335 1.000000 Biso 0.000000
O803  O  0.473430  0.500000  0.750000 1.000000 Biso 0.000000
O804  O  0.473430  0.366670  0.716665 1.000000 Biso 0.000000
O805  O  0.473430  0.566670  0.683335 1.000000 Biso 0.000000
O806  O  0.473430  0.433330  0.650000 1.000000 Biso 0.000000
O807  O  0.473430  0.633330  0.616665 1.000000 Biso 0.000000
O808  O  0.473430  0.500000  0.583335 1.000000 Biso 0.000000
O809  O  0.473430  0.366670  0.550000 1.000000 Biso 0.000000
O810  O  0.473430  0.566670  0.516665 1.000000 Biso 0.000000
Pb271  Pb  0.747630  0.333330  0.500000 1.000000 Biso 0.000000
Pb272  Pb  0.747630  0.533330  0.966665 1.000000 Biso 0.000000
Pb273  Pb  0.747630  0.400000  0.933335 1.000000 Biso 0.000000
Pb274  Pb  0.747630  0.600000  0.900000 1.000000 Biso 0.000000
Pb275  Pb  0.747630  0.466670  0.866665 1.000000 Biso 0.000000
Pb276  Pb  0.747630  0.333330  0.833335 1.000000 Biso 0.000000
Pb277  Pb  0.747630  0.533330  0.800000 1.000000 Biso 0.000000
Pb278  Pb  0.747630  0.400000  0.766665 1.000000 Biso 0.000000
Pb279  Pb  0.747630  0.600000  0.733335 1.000000 Biso 0.000000
Pb280  Pb  0.747630  0.466670  0.700000 1.000000 Biso 0.000000
Pb281  Pb  0.747630  0.333330  0.666665 1.000000 Biso 0.000000
Pb282  Pb  0.747630  0.533330  0.633335 1.000000 Biso 0.000000
Pb283  Pb  0.747630  0.400000  0.600000 1.000000 Biso 0.000000
Pb284  Pb  0.747630  0.600000  0.566665 1.000000 Biso 0.000000
Pb285  Pb  0.747630  0.466670  0.533335 1.000000 Biso 0.000000
Ti271  Ti  0.612770  0.433330  0.983335 1.000000 Biso 0.000000
Ti272  Ti  0.612770  0.633330  0.950000 1.000000 Biso 0.000000
Ti273  Ti  0.612770  0.500000  0.916665 1.000000 Biso 0.000000
Ti274  Ti  0.612770  0.366670  0.883335 1.000000 Biso 0.000000
Ti275  Ti  0.612770  0.566670  0.850000 1.000000 Biso 0.000000
Ti276  Ti  0.612770  0.433330  0.816665 1.000000 Biso 0.000000
Ti277  Ti  0.612770  0.633330  0.783335 1.000000 Biso 0.000000
Ti278  Ti  0.612770  0.500000  0.750000 1.000000 Biso 0.000000
Ti279  Ti  0.612770  0.366670  0.716665 1.000000 Biso 0.000000
Ti280  Ti  0.612770  0.566670  0.683335 1.000000 Biso 0.000000
Ti281  Ti  0.612770  0.433330  0.650000 1.000000 Biso 0.000000
Ti282  Ti  0.612770  0.633330  0.616665 1.000000 Biso 0.000000
Ti283  Ti  0.612770  0.500000  0.583335 1.000000 Biso 0.000000
Ti284  Ti  0.612770  0.366670  0.550000 1.000000 Biso 0.000000
Ti285  Ti  0.612770  0.566670  0.516665 1.000000 Biso 0.000000
O811  O  0.594600  0.600000  0.983335 1.000000 Biso 0.000000
O812  O  0.594600  0.466670  0.950000 1.000000 Biso 0.000000
O813  O  0.594600  0.333330  0.916665 1.000000 Biso 0.000000
O814  O  0.594600  0.533330  0.883335 1.000000 Biso 0.000000
O815  O  0.594600  0.400000  0.850000 1.000000 Biso 0.000000
O816  O  0.594600  0.600000  0.816665 1.000000 Biso 0.000000
O817  O  0.594600  0.466670  0.783335 1.000000 Biso 0.000000
O818  O  0.594600  0.333330  0.750000 1.000000 Biso 0.000000
O819  O  0.594600  0.533330  0.716665 1.000000 Biso 0.000000
O820  O  0.594600  0.400000  0.683335 1.000000 Biso 0.000000
O821  O  0.594600  0.600000  0.650000 1.000000 Biso 0.000000
O822  O  0.594600  0.466670  0.616665 1.000000 Biso 0.000000
O823  O  0.594600  0.333330  0.583335 1.000000 Biso 0.000000
O824  O  0.594600  0.533330  0.550000 1.000000 Biso 0.000000
O825  O  0.594600  0.400000  0.516665 1.000000 Biso 0.000000
O826  O  0.594600  0.500000  0.500000 1.000000 Biso 0.000000
O827  O  0.594600  0.366670  0.966665 1.000000 Biso 0.000000
O828  O  0.594600  0.566670  0.933335 1.000000 Biso 0.000000
O829  O  0.594600  0.433330  0.900000 1.000000 Biso 0.000000
O830  O  0.594600  0.633330  0.866665 1.000000 Biso 0.000000
O831  O  0.594600  0.500000  0.833335 1.000000 Biso 0.000000
O832  O  0.594600  0.366670  0.800000 1.000000 Biso 0.000000
O833  O  0.594600  0.566670  0.766665 1.000000 Biso 0.000000
O834  O  0.594600  0.433330  0.733335 1.000000 Biso 0.000000
O835  O  0.594600  0.633330  0.700000 1.000000 Biso 0.000000
O836  O  0.594600  0.500000  0.666665 1.000000 Biso 0.000000
O837  O  0.594600  0.366670  0.633335 1.000000 Biso 0.000000
O838  O  0.594600  0.566670  0.600000 1.000000 Biso 0.000000
O839  O  0.594600  0.433330  0.566665 1.000000 Biso 0.000000
O840  O  0.594600  0.633330  0.533335 1.000000 Biso 0.000000
O841  O  0.723430  0.433330  0.983335 1.000000 Biso 0.000000
O842  O  0.723430  0.633330  0.950000 1.000000 Biso 0.000000
O843  O  0.723430  0.500000  0.916665 1.000000 Biso 0.000000
O844  O  0.723430  0.366670  0.883335 1.000000 Biso 0.000000
O845  O  0.723430  0.566670  0.850000 1.000000 Biso 0.000000
O846  O  0.723430  0.433330  0.816665 1.000000 Biso 0.000000
O847  O  0.723430  0.633330  0.783335 1.000000 Biso 0.000000
O848  O  0.723430  0.500000  0.750000 1.000000 Biso 0.000000
O849  O  0.723430  0.366670  0.716665 1.000000 Biso 0.000000
O850  O  0.723430  0.566670  0.683335 1.000000 Biso 0.000000
O851  O  0.723430  0.433330  0.650000 1.000000 Biso 0.000000
O852  O  0.723430  0.633330  0.616665 1.000000 Biso 0.000000
O853  O  0.723430  0.500000  0.583335 1.000000 Biso 0.000000
O854  O  0.723430  0.366670  0.550000 1.000000 Biso 0.000000
O855  O  0.723430  0.566670  0.516665 1.000000 Biso 0.000000
Pb286  Pb  0.997630  0.333330  0.500000 1.000000 Biso 0.000000
Pb287  Pb  0.997630  0.533330  0.966665 1.000000 Biso 0.000000
Pb288  Pb  0.997630  0.400000  0.933335 1.000000 Biso 0.000000
Pb289  Pb  0.997630  0.600000  0.900000 1.000000 Biso 0.000000
Pb290  Pb  0.997630  0.466670  0.866665 1.000000 Biso 0.000000
Pb291  Pb  0.997630  0.333330  0.833335 1.000000 Biso 0.000000
Pb292  Pb  0.997630  0.533330  0.800000 1.000000 Biso 0.000000
Pb293  Pb  0.997630  0.400000  0.766665 1.000000 Biso 0.000000
Pb294  Pb  0.997630  0.600000  0.733335 1.000000 Biso 0.000000
Pb295  Pb  0.997630  0.466670  0.700000 1.000000 Biso 0.000000
Pb296  Pb  0.997630  0.333330  0.666665 1.000000 Biso 0.000000
Pb297  Pb  0.997630  0.533330  0.633335 1.000000 Biso 0.000000
Pb298  Pb  0.997630  0.400000  0.600000 1.000000 Biso 0.000000
Pb299  Pb  0.997630  0.600000  0.566665 1.000000 Biso 0.000000
Pb300  Pb  0.997630  0.466670  0.533335 1.000000 Biso 0.000000
Ti286  Ti  0.862770  0.433330  0.983335 1.000000 Biso 0.000000
Ti287  Ti  0.862770  0.633330  0.950000 1.000000 Biso 0.000000
Ti288  Ti  0.862770  0.500000  0.916665 1.000000 Biso 0.000000
Ti289  Ti  0.862770  0.366670  0.883335 1.000000 Biso 0.000000
Ti290  Ti  0.862770  0.566670  0.850000 1.000000 Biso 0.000000
Ti291  Ti  0.862770  0.433330  0.816665 1.000000 Biso 0.000000
Ti292  Ti  0.862770  0.633330  0.783335 1.000000 Biso 0.000000
Ti293  Ti  0.862770  0.500000  0.750000 1.000000 Biso 0.000000
Ti294  Ti  0.862770  0.366670  0.716665 1.000000 Biso 0.000000
Ti295  Ti  0.862770  0.566670  0.683335 1.000000 Biso 0.000000
Ti296  Ti  0.862770  0.433330  0.650000 1.000000 Biso 0.000000
Ti297  Ti  0.862770  0.633330  0.616665 1.000000 Biso 0.000000
Ti298  Ti  0.862770  0.500000  0.583335 1.000000 Biso 0.000000
Ti299  Ti  0.862770  0.366670  0.550000 1.000000 Biso 0.000000
Ti300  Ti  0.862770  0.566670  0.516665 1.000000 Biso 0.000000
O856  O  0.844600  0.600000  0.983335 1.000000 Biso 0.000000
O857  O  0.844600  0.466670  0.950000 1.000000 Biso 0.000000
O858  O  0.844600  0.333330  0.916665 1.000000 Biso 0.000000
O859  O  0.844600  0.533330  0.883335 1.000000 Biso 0.000000
O860  O  0.844600  0.400000  0.850000 1.000000 Biso 0.000000
O861  O  0.844600  0.600000  0.816665 1.000000 Biso 0.000000
O862  O  0.844600  0.466670  0.783335 1.000000 Biso 0.000000
O863  O  0.844600  0.333330  0.750000 1.000000 Biso 0.000000
O864  O  0.844600  0.533330  0.716665 1.000000 Biso 0.000000
O865  O  0.844600  0.400000  0.683335 1.000000 Biso 0.000000
O866  O  0.844600  0.600000  0.650000 1.000000 Biso 0.000000
O867  O  0.844600  0.466670  0.616665 1.000000 Biso 0.000000
O868  O  0.844600  0.333330  0.583335 1.000000 Biso 0.000000
O869  O  0.844600  0.533330  0.550000 1.000000 Biso 0.000000
O870  O  0.844600  0.400000  0.516665 1.000000 Biso 0.000000
O871  O  0.844600  0.500000  0.500000 1.000000 Biso 0.000000
O872  O  0.844600  0.366670  0.966665 1.000000 Biso 0.000000
O873  O  0.844600  0.566670  0.933335 1.000000 Biso 0.000000
O874  O  0.844600  0.433330  0.900000 1.000000 Biso 0.000000
O875  O  0.844600  0.633330  0.866665 1.000000 Biso 0.000000
O876  O  0.844600  0.500000  0.833335 1.000000 Biso 0.000000
O877  O  0.844600  0.366670  0.800000 1.000000 Biso 0.000000
O878  O  0.844600  0.566670  0.766665 1.000000 Biso 0.000000
O879  O  0.844600  0.433330  0.733335 1.000000 Biso 0.000000
O880  O  0.844600  0.633330  0.700000 1.000000 Biso 0.000000
O881  O  0.844600  0.500000  0.666665 1.000000 Biso 0.000000
O882  O  0.844600  0.366670  0.633335 1.000000 Biso 0.000000
O883  O  0.844600  0.566670  0.600000 1.000000 Biso 0.000000
O884  O  0.844600  0.433330  0.566665 1.000000 Biso 0.000000
O885  O  0.844600  0.633330  0.533335 1.000000 Biso 0.000000
O886  O  0.973430  0.433330  0.983335 1.000000 Biso 0.000000
O887  O  0.973430  0.633330  0.950000 1.000000 Biso 0.000000
O888  O  0.973430  0.500000  0.916665 1.000000 Biso 0.000000
O889  O  0.973430  0.366670  0.883335 1.000000 Biso 0.000000
O890  O  0.973430  0.566670  0.850000 1.000000 Biso 0.000000
O891  O  0.973430  0.433330  0.816665 1.000000 Biso 0.000000
O892  O  0.973430  0.633330  0.783335 1.000000 Biso 0.000000
O893  O  0.973430  0.500000  0.750000 1.000000 Biso 0.000000
O894  O  0.973430  0.366670  0.716665 1.000000 Biso 0.000000
O895  O  0.973430  0.566670  0.683335 1.000000 Biso 0.000000
O896  O  0.973430  0.433330  0.650000 1.000000 Biso 0.000000
O897  O  0.973430  0.633330  0.616665 1.000000 Biso 0.000000
O898  O  0.973430  0.500000  0.583335 1.000000 Biso 0.000000
O899  O  0.973430  0.366670  0.550000 1.000000 Biso 0.000000
O900  O  0.973430  0.566670  0.516665 1.000000 Biso 0.000000
Pb301  Pb  0.247630  0.666670  0.500000 1.000000 Biso 0.000000
Pb302  Pb  0.247630  0.866670  0.966665 1.000000 Biso 0.000000
Pb303  Pb  0.247630  0.733330  0.933335 1.000000 Biso 0.000000
Pb304  Pb  0.247630  0.933330  0.900000 1.000000 Biso 0.000000
Pb305  Pb  0.247630  0.800000  0.866665 1.000000 Biso 0.000000
Pb306  Pb  0.247630  0.666670  0.833335 1.000000 Biso 0.000000
Pb307  Pb  0.247630  0.866670  0.800000 1.000000 Biso 0.000000
Pb308  Pb  0.247630  0.733330  0.766665 1.000000 Biso 0.000000
Pb309  Pb  0.247630  0.933330  0.733335 1.000000 Biso 0.000000
Pb310  Pb  0.247630  0.800000  0.700000 1.000000 Biso 0.000000
Pb311  Pb  0.247630  0.666670  0.666665 1.000000 Biso 0.000000
Pb312  Pb  0.247630  0.866670  0.633335 1.000000 Biso 0.000000
Pb313  Pb  0.247630  0.733330  0.600000 1.000000 Biso 0.000000
Pb314  Pb  0.247630  0.933330  0.566665 1.000000 Biso 0.000000
Pb315  Pb  0.247630  0.800000  0.533335 1.000000 Biso 0.000000
Ti301  Ti  0.112770  0.766670  0.983335 1.000000 Biso 0.000000
Ti302  Ti  0.112770  0.966670  0.950000 1.000000 Biso 0.000000
Ti303  Ti  0.112770  0.833330  0.916665 1.000000 Biso 0.000000
Ti304  Ti  0.112770  0.700000  0.883335 1.000000 Biso 0.000000
Ti305  Ti  0.112770  0.900000  0.850000 1.000000 Biso 0.000000
Ti306  Ti  0.112770  0.766670  0.816665 1.000000 Biso 0.000000
Ti307  Ti  0.112770  0.966670  0.783335 1.000000 Biso 0.000000
Ti308  Ti  0.112770  0.833330  0.750000 1.000000 Biso 0.000000
Ti309  Ti  0.112770  0.700000  0.716665 1.000000 Biso 0.000000
Ti310  Ti  0.112770  0.900000  0.683335 1.000000 Biso 0.000000
Ti311  Ti  0.112770  0.766670  0.650000 1.000000 Biso 0.000000
Ti312  Ti  0.112770  0.966670  0.616665 1.000000 Biso 0.000000
Ti313  Ti  0.112770  0.833330  0.583335 1.000000 Biso 0.000000
Ti314  Ti  0.112770  0.700000  0.550000 1.000000 Biso 0.000000
Ti315  Ti  0.112770  0.900000  0.516665 1.000000 Biso 0.000000
O901  O  0.094600  0.933330  0.983335 1.000000 Biso 0.000000
O902  O  0.094600  0.800000  0.950000 1.000000 Biso 0.000000
O903  O  0.094600  0.666670  0.916665 1.000000 Biso 0.000000
O904  O  0.094600  0.866670  0.883335 1.000000 Biso 0.000000
O905  O  0.094600  0.733330  0.850000 1.000000 Biso 0.000000
O906  O  0.094600  0.933330  0.816665 1.000000 Biso 0.000000
O907  O  0.094600  0.800000  0.783335 1.000000 Biso 0.000000
O908  O  0.094600  0.666670  0.750000 1.000000 Biso 0.000000
O909  O  0.094600  0.866670  0.716665 1.000000 Biso 0.000000
O910  O  0.094600  0.733330  0.683335 1.000000 Biso 0.000000
O911  O  0.094600  0.933330  0.650000 1.000000 Biso 0.000000
O912  O  0.094600  0.800000  0.616665 1.000000 Biso 0.000000
O913  O  0.094600  0.666670  0.583335 1.000000 Biso 0.000000
O914  O  0.094600  0.866670  0.550000 1.000000 Biso 0.000000
O915  O  0.094600  0.733330  0.516665 1.000000 Biso 0.000000
O916  O  0.094600  0.833330  0.500000 1.000000 Biso 0.000000
O917  O  0.094600  0.700000  0.966665 1.000000 Biso 0.000000
O918  O  0.094600  0.900000  0.933335 1.000000 Biso 0.000000
O919  O  0.094600  0.766670  0.900000 1.000000 Biso 0.000000
O920  O  0.094600  0.966670  0.866665 1.000000 Biso 0.000000
O921  O  0.094600  0.833330  0.833335 1.000000 Biso 0.000000
O922  O  0.094600  0.700000  0.800000 1.000000 Biso 0.000000
O923  O  0.094600  0.900000  0.766665 1.000000 Biso 0.000000
O924  O  0.094600  0.766670  0.733335 1.000000 Biso 0.000000
O925  O  0.094600  0.966670  0.700000 1.000000 Biso 0.000000
O926  O  0.094600  0.833330  0.666665 1.000000 Biso 0.000000
O927  O  0.094600  0.700000  0.633335 1.000000 Biso 0.000000
O928  O  0.094600  0.900000  0.600000 1.000000 Biso 0.000000
O929  O  0.094600  0.766670  0.566665 1.000000 Biso 0.000000
O930  O  0.094600  0.966670  0.533335 1.000000 Biso 0.000000
O931  O  0.223430  0.766670  0.983335 1.000000 Biso 0.000000
O932  O  0.223430  0.966670  0.950000 1.000000 Biso 0.000000
O933  O  0.223430  0.833330  0.916665 1.000000 Biso 0.000000
O934  O  0.223430  0.700000  0.883335 1.000000 Biso 0.000000
O935  O  0.223430  0.900000  0.850000 1.000000 Biso 0.000000
O936  O  0.223430  0.766670  0.816665 1.000000 Biso 0.000000
O937  O  0.223430  0.966670  0.783335 1.000000 Biso 0.000000
O938  O  0.223430  0.833330  0.750000 1.000000 Biso 0.000000
O939  O  0.223430  0.700000  0.716665 1.000000 Biso 0.000000
O940  O  0.223430  0.900000  0.683335 1.000000 Biso 0.000000
O941  O  0.223430  0.766670  0.650000 1.000000 Biso 0.000000
O942  O  0.223430  0.966670  0.616665 1.000000 Biso 0.000000
O943  O  0.223430  0.833330  0.583335 1.000000 Biso 0.000000
O944  O  0.223430  0.700000  0.550000 1.000000 Biso 0.000000
O945  O  0.223430  0.900000  0.516665 1.000000 Biso 0.000000
Pb316  Pb  0.497630  0.666670  0.500000 1.000000 Biso 0.000000
Pb317  Pb  0.497630  0.866670  0.966665 1.000000 Biso 0.000000
Pb318  Pb  0.497630  0.733330  0.933335 1.000000 Biso 0.000000
Pb319  Pb  0.497630  0.933330  0.900000 1.000000 Biso 0.000000
Pb320  Pb  0.497630  0.800000  0.866665 1.000000 Biso 0.000000
Pb321  Pb  0.497630  0.666670  0.833335 1.000000 Biso 0.000000
Pb322  Pb  0.497630  0.866670  0.800000 1.000000 Biso 0.000000
Pb323  Pb  0.497630  0.733330  0.766665 1.000000 Biso 0.000000
Pb324  Pb  0.497630  0.933330  0.733335 1.000000 Biso 0.000000
Pb325  Pb  0.497630  0.800000  0.700000 1.000000 Biso 0.000000
Pb326  Pb  0.497630  0.666670  0.666665 1.000000 Biso 0.000000
Pb327  Pb  0.497630  0.866670  0.633335 1.000000 Biso 0.000000
Pb328  Pb  0.497630  0.733330  0.600000 1.000000 Biso 0.000000
Pb329  Pb  0.497630  0.933330  0.566665 1.000000 Biso 0.000000
Pb330  Pb  0.497630  0.800000  0.533335 1.000000 Biso 0.000000
Ti316  Ti  0.362770  0.766670  0.983335 1.000000 Biso 0.000000
Ti317  Ti  0.362770  0.966670  0.950000 1.000000 Biso 0.000000
Ti318  Ti  0.362770  0.833330  0.916665 1.000000 Biso 0.000000
Ti319  Ti  0.362770  0.700000  0.883335 1.000000 Biso 0.000000
Ti320  Ti  0.362770  0.900000  0.850000 1.000000 Biso 0.000000
Ti321  Ti  0.362770  0.766670  0.816665 1.000000 Biso 0.000000
Ti322  Ti  0.362770  0.966670  0.783335 1.000000 Biso 0.000000
Ti323  Ti  0.362770  0.833330  0.750000 1.000000 Biso 0.000000
Ti324  Ti  0.362770  0.700000  0.716665 1.000000 Biso 0.000000
Ti325  Ti  0.362770  0.900000  0.683335 1.000000 Biso 0.000000
Ti326  Ti  0.362770  0.766670  0.650000 1.000000 Biso 0.000000
Ti327  Ti  0.362770  0.966670  0.616665 1.000000 Biso 0.000000
Ti328  Ti  0.362770  0.833330  0.583335 1.000000 Biso 0.000000
Ti329  Ti  0.362770  0.700000  0.550000 1.000000 Biso 0.000000
Ti330  Ti  0.362770  0.900000  0.516665 1.000000 Biso 0.000000
O946  O  0.344600  0.933330  0.983335 1.000000 Biso 0.000000
O947  O  0.344600  0.800000  0.950000 1.000000 Biso 0.000000
O948  O  0.344600  0.666670  0.916665 1.000000 Biso 0.000000
O949  O  0.344600  0.866670  0.883335 1.000000 Biso 0.000000
O950  O  0.344600  0.733330  0.850000 1.000000 Biso 0.000000
O951  O  0.344600  0.933330  0.816665 1.000000 Biso 0.000000
O952  O  0.344600  0.800000  0.783335 1.000000 Biso 0.000000
O953  O  0.344600  0.666670  0.750000 1.000000 Biso 0.000000
O954  O  0.344600  0.866670  0.716665 1.000000 Biso 0.000000
O955  O  0.344600  0.733330  0.683335 1.000000 Biso 0.000000
O956  O  0.344600  0.933330  0.650000 1.000000 Biso 0.000000
O957  O  0.344600  0.800000  0.616665 1.000000 Biso 0.000000
O958  O  0.344600  0.666670  0.583335 1.000000 Biso 0.000000
O959  O  0.344600  0.866670  0.550000 1.000000 Biso 0.000000
O960  O  0.344600  0.733330  0.516665 1.000000 Biso 0.000000
O961  O  0.344600  0.833330  0.500000 1.000000 Biso 0.000000
O962  O  0.344600  0.700000  0.966665 1.000000 Biso 0.000000
O963  O  0.344600  0.900000  0.933335 1.000000 Biso 0.000000
O964  O  0.344600  0.766670  0.900000 1.000000 Biso 0.000000
O965  O  0.344600  0.966670  0.866665 1.000000 Biso 0.000000
O966  O  0.344600  0.833330  0.833335 1.000000 Biso 0.000000
O967  O  0.344600  0.700000  0.800000 1.000000 Biso 0.000000
O968  O  0.344600  0.900000  0.766665 1.000000 Biso 0.000000
O969  O  0.344600  0.766670  0.733335 1.000000 Biso 0.000000
O970  O  0.344600  0.966670  0.700000 1.000000 Biso 0.000000
O971  O  0.344600  0.833330  0.666665 1.000000 Biso 0.000000
O972  O  0.344600  0.700000  0.633335 1.000000 Biso 0.000000
O973  O  0.344600  0.900000  0.600000 1.000000 Biso 0.000000
O974  O  0.344600  0.766670  0.566665 1.000000 Biso 0.000000
O975  O  0.344600  0.966670  0.533335 1.000000 Biso 0.000000
O976  O  0.473430  0.766670  0.983335 1.000000 Biso 0.000000
O977  O  0.473430  0.966670  0.950000 1.000000 Biso 0.000000
O978  O  0.473430  0.833330  0.916665 1.000000 Biso 0.000000
O979  O  0.473430  0.700000  0.883335 1.000000 Biso 0.000000
O980  O  0.473430  0.900000  0.850000 1.000000 Biso 0.000000
O981  O  0.473430  0.766670  0.816665 1.000000 Biso 0.000000
O982  O  0.473430  0.966670  0.783335 1.000000 Biso 0.000000
O983  O  0.473430  0.833330  0.750000 1.000000 Biso 0.000000
O984  O  0.473430  0.700000  0.716665 1.000000 Biso 0.000000
O985  O  0.473430  0.900000  0.683335 1.000000 Biso 0.000000
O986  O  0.473430  0.766670  0.650000 1.000000 Biso 0.000000
O987  O  0.473430  0.966670  0.616665 1.000000 Biso 0.000000
O988  O  0.473430  0.833330  0.583335 1.000000 Biso 0.000000
O989  O  0.473430  0.700000  0.550000 1.000000 Biso 0.000000
O990  O  0.473430  0.900000  0.516665 1.000000 Biso 0.000000
Pb331  Pb  0.747630  0.666670  0.500000 1.000000 Biso 0.000000
Pb332  Pb  0.747630  0.866670  0.966665 1.000000 Biso 0.000000
Pb333  Pb  0.747630  0.733330  0.933335 1.000000 Biso 0.000000
Pb334  Pb  0.747630  0.933330  0.900000 1.000000 Biso 0.000000
Pb335  Pb  0.747630  0.800000  0.866665 1.000000 Biso 0.000000
Pb336  Pb  0.747630  0.666670  0.833335 1.000000 Biso 0.000000
Pb337  Pb  0.747630  0.866670  0.800000 1.000000 Biso 0.000000
Pb338  Pb  0.747630  0.733330  0.766665 1.000000 Biso 0.000000
Pb339  Pb  0.747630  0.933330  0.733335 1.000000 Biso 0.000000
Pb340  Pb  0.747630  0.800000  0.700000 1.000000 Biso 0.000000
Pb341  Pb  0.747630  0.666670  0.666665 1.000000 Biso 0.000000
Pb342  Pb  0.747630  0.866670  0.633335 1.000000 Biso 0.000000
Pb343  Pb  0.747630  0.733330  0.600000 1.000000 Biso 0.000000
Pb344  Pb  0.747630  0.933330  0.566665 1.000000 Biso 0.000000
Pb345  Pb  0.747630  0.800000  0.533335 1.000000 Biso 0.000000
Ti331  Ti  0.612770  0.766670  0.983335 1.000000 Biso 0.000000
Ti332  Ti  0.612770  0.966670  0.950000 1.000000 Biso 0.000000
Ti333  Ti  0.612770  0.833330  0.916665 1.000000 Biso 0.000000
Ti334  Ti  0.612770  0.700000  0.883335 1.000000 Biso 0.000000
Ti335  Ti  0.612770  0.900000  0.850000 1.000000 Biso 0.000000
Ti336  Ti  0.612770  0.766670  0.816665 1.000000 Biso 0.000000
Ti337  Ti  0.612770  0.966670  0.783335 1.000000 Biso 0.000000
Ti338  Ti  0.612770  0.833330  0.750000 1.000000 Biso 0.000000
Ti339  Ti  0.612770  0.700000  0.716665 1.000000 Biso 0.000000
Ti340  Ti  0.612770  0.900000  0.683335 1.000000 Biso 0.000000
Ti341  Ti  0.612770  0.766670  0.650000 1.000000 Biso 0.000000
Ti342  Ti  0.612770  0.966670  0.616665 1.000000 Biso 0.000000
Ti343  Ti  0.612770  0.833330  0.583335 1.000000 Biso 0.000000
Ti344  Ti  0.612770  0.700000  0.550000 1.000000 Biso 0.000000
Ti345  Ti  0.612770  0.900000  0.516665 1.000000 Biso 0.000000
O991  O  0.594600  0.933330  0.983335 1.000000 Biso 0.000000
O992  O  0.594600  0.800000  0.950000 1.000000 Biso 0.000000
O993  O  0.594600  0.666670  0.916665 1.000000 Biso 0.000000
O994  O  0.594600  0.866670  0.883335 1.000000 Biso 0.000000
O995  O  0.594600  0.733330  0.850000 1.000000 Biso 0.000000
O996  O  0.594600  0.933330  0.816665 1.000000 Biso 0.000000
O997  O  0.594600  0.800000  0.783335 1.000000 Biso 0.000000
O998  O  0.594600  0.666670  0.750000 1.000000 Biso 0.000000
O999  O  0.594600  0.866670  0.716665 1.000000 Biso 0.000000
O1000  O  0.594600  0.733330  0.683335 1.000000 Biso 0.000000
O1001  O  0.594600  0.933330  0.650000 1.000000 Biso 0.000000
O1002  O  0.594600  0.800000  0.616665 1.000000 Biso 0.000000
O1003  O  0.594600  0.666670  0.583335 1.000000 Biso 0.000000
O1004  O  0.594600  0.866670  0.550000 1.000000 Biso 0.000000
O1005  O  0.594600  0.733330  0.516665 1.000000 Biso 0.000000
O1006  O  0.594600  0.833330  0.500000 1.000000 Biso 0.000000
O1007  O  0.594600  0.700000  0.966665 1.000000 Biso 0.000000
O1008  O  0.594600  0.900000  0.933335 1.000000 Biso 0.000000
O1009  O  0.594600  0.766670  0.900000 1.000000 Biso 0.000000
O1010  O  0.594600  0.966670  0.866665 1.000000 Biso 0.000000
O1011  O  0.594600  0.833330  0.833335 1.000000 Biso 0.000000
O1012  O  0.594600  0.700000  0.800000 1.000000 Biso 0.000000
O1013  O  0.594600  0.900000  0.766665 1.000000 Biso 0.000000
O1014  O  0.594600  0.766670  0.733335 1.000000 Biso 0.000000
O1015  O  0.594600  0.966670  0.700000 1.000000 Biso 0.000000
O1016  O  0.594600  0.833330  0.666665 1.000000 Biso 0.000000
O1017  O  0.594600  0.700000  0.633335 1.000000 Biso 0.000000
O1018  O  0.594600  0.900000  0.600000 1.000000 Biso 0.000000
O1019  O  0.594600  0.766670  0.566665 1.000000 Biso 0.000000
O1020  O  0.594600  0.966670  0.533335 1.000000 Biso 0.000000
O1021  O  0.723430  0.766670  0.983335 1.000000 Biso 0.000000
O1022  O  0.723430  0.966670  0.950000 1.000000 Biso 0.000000
O1023  O  0.723430  0.833330  0.916665 1.000000 Biso 0.000000
O1024  O  0.723430  0.700000  0.883335 1.000000 Biso 0.000000
O1025  O  0.723430  0.900000  0.850000 1.000000 Biso 0.000000
O1026  O  0.723430  0.766670  0.816665 1.000000 Biso 0.000000
O1027  O  0.723430  0.966670  0.783335 1.000000 Biso 0.000000
O1028  O  0.723430  0.833330  0.750000 1.000000 Biso 0.000000
O1029  O  0.723430  0.700000  0.716665 1.000000 Biso 0.000000
O1030  O  0.723430  0.900000  0.683335 1.000000 Biso 0.000000
O1031  O  0.723430  0.766670  0.650000 1.000000 Biso 0.000000
O1032  O  0.723430  0.966670  0.616665 1.000000 Biso 0.000000
O1033  O  0.723430  0.833330  0.583335 1.000000 Biso 0.000000
O1034  O  0.723430  0.700000  0.550000 1.000000 Biso 0.000000
O1035  O  0.723430  0.900000  0.516665 1.000000 Biso 0.000000
Pb346  Pb  0.997630  0.666670  0.500000 1.000000 Biso 0.000000
Pb347  Pb  0.997630  0.866670  0.966665 1.000000 Biso 0.000000
Pb348  Pb  0.997630  0.733330  0.933335 1.000000 Biso 0.000000
Pb349  Pb  0.997630  0.933330  0.900000 1.000000 Biso 0.000000
Pb350  Pb  0.997630  0.800000  0.866665 1.000000 Biso 0.000000
Pb351  Pb  0.997630  0.666670  0.833335 1.000000 Biso 0.000000
Pb352  Pb  0.997630  0.866670  0.800000 1.000000 Biso 0.000000
Pb353  Pb  0.997630  0.733330  0.766665 1.000000 Biso 0.000000
Pb354  Pb  0.997630  0.933330  0.733335 1.000000 Biso 0.000000
Pb355  Pb  0.997630  0.800000  0.700000 1.000000 Biso 0.000000
Pb356  Pb  0.997630  0.666670  0.666665 1.000000 Biso 0.000000
Pb357  Pb  0.997630  0.866670  0.633335 1.000000 Biso 0.000000
Pb358  Pb  0.997630  0.733330  0.600000 1.000000 Biso 0.000000
Pb359  Pb  0.997630  0.933330  0.566665 1.000000 Biso 0.000000
Pb360  Pb  0.997630  0.800000  0.533335 1.000000 Biso 0.000000
Ti346  Ti  0.862770  0.766670  0.983335 1.000000 Biso 0.000000
Ti347  Ti  0.862770  0.966670  0.950000 1.000000 Biso 0.000000
Ti348  Ti  0.862770  0.833330  0.916665 1.000000 Biso 0.000000
Ti349  Ti  0.862770  0.700000  0.883335 1.000000 Biso 0.000000
Ti350  Ti  0.862770  0.900000  0.850000 1.000000 Biso 0.000000
Ti351  Ti  0.862770  0.766670  0.816665 1.000000 Biso 0.000000
Ti352  Ti  0.862770  0.966670  0.783335 1.000000 Biso 0.000000
Ti353  Ti  0.862770  0.833330  0.750000 1.000000 Biso 0.000000
Ti354  Ti  0.862770  0.700000  0.716665 1.000000 Biso 0.000000
Ti355  Ti  0.862770  0.900000  0.683335 1.000000 Biso 0.000000
Ti356  Ti  0.862770  0.766670  0.650000 1.000000 Biso 0.000000
Ti357  Ti  0.862770  0.966670  0.616665 1.000000 Biso 0.000000
Ti358  Ti  0.862770  0.833330  0.583335 1.000000 Biso 0.000000
Ti359  Ti  0.862770  0.700000  0.550000 1.000000 Biso 0.000000
Ti360  Ti  0.862770  0.900000  0.516665 1.000000 Biso 0.000000
O1036  O  0.844600  0.933330  0.983335 1.000000 Biso 0.000000
O1037  O  0.844600  0.800000  0.950000 1.000000 Biso 0.000000
O1038  O  0.844600  0.666670  0.916665 1.000000 Biso 0.000000
O1039  O  0.844600  0.866670  0.883335 1.000000 Biso 0.000000
O1040  O  0.844600  0.733330  0.850000 1.000000 Biso 0.000000
O1041  O  0.844600  0.933330  0.816665 1.000000 Biso 0.000000
O1042  O  0.844600  0.800000  0.783335 1.000000 Biso 0.000000
O1043  O  0.844600  0.666670  0.750000 1.000000 Biso 0.000000
O1044  O  0.844600  0.866670  0.716665 1.000000 Biso 0.000000
O1045  O  0.844600  0.733330  0.683335 1.000000 Biso 0.000000
O1046  O  0.844600  0.933330  0.650000 1.000000 Biso 0.000000
O1047  O  0.844600  0.800000  0.616665 1.000000 Biso 0.000000
O1048  O  0.844600  0.666670  0.583335 1.000000 Biso 0.000000
O1049  O  0.844600  0.866670  0.550000 1.000000 Biso 0.000000
O1050  O  0.844600  0.733330  0.516665 1.000000 Biso 0.000000
O1051  O  0.844600  0.833330  0.500000 1.000000 Biso 0.000000
O1052  O  0.844600  0.700000  0.966665 1.000000 Biso 0.000000
O1053  O  0.844600  0.900000  0.933335 1.000000 Biso 0.000000
O1054  O  0.844600  0.766670  0.900000 1.000000 Biso 0.000000
O1055  O  0.844600  0.966670  0.866665 1.000000 Biso 0.000000
O1056  O  0.844600  0.833330  0.833335 1.000000 Biso 0.000000
O1057  O  0.844600  0.700000  0.800000 1.000000 Biso 0.000000
O1058  O  0.844600  0.900000  0.766665 1.000000 Biso 0.000000
O1059  O  0.844600  0.766670  0.733335 1.000000 Biso 0.000000
O1060  O  0.844600  0.966670  0.700000 1.000000 Biso 0.000000
O1061  O  0.844600  0.833330  0.666665 1.000000 Biso 0.000000
O1062  O  0.844600  0.700000  0.633335 1.000000 Biso 0.000000
O1063  O  0.844600  0.900000  0.600000 1.000000 Biso 0.000000
O1064  O  0.844600  0.766670  0.566665 1.000000 Biso 0.000000
O1065  O  0.844600  0.966670  0.533335 1.000000 Biso 0.000000
O1066  O  0.973430  0.766670  0.983335 1.000000 Biso 0.000000
O1067  O  0.973430  0.966670  0.950000 1.000000 Biso 0.000000
O1068  O  0.973430  0.833330  0.916665 1.000000 Biso 0.000000
O1069  O  0.973430  0.700000  0.883335 1.000000 Biso 0.000000
O1070  O  0.973430  0.900000  0.850000 1.000000 Biso 0.000000
O1071  O  0.973430  0.766670  0.816665 1.000000 Biso 0.000000
O1072  O  0.973430  0.966670  0.783335 1.000000 Biso 0.000000
O1073  O  0.973430  0.833330  0.750000 1.000000 Biso 0.000000
O1074  O  0.973430  0.700000  0.716665 1.000000 Biso 0.000000
O1075  O  0.973430  0.900000  0.683335 1.000000 Biso 0.000000
O1076  O  0.973430  0.766670  0.650000 1.000000 Biso 0.000000
O1077  O  0.973430  0.966670  0.616665 1.000000 Biso 0.000000
O1078  O  0.973430  0.833330  0.583335 1.000000 Biso 0.000000
O1079  O  0.973430  0.700000  0.550000 1.000000 Biso 0.000000
O1080  O  0.973430  0.900000  0.516665 1.000000 Biso 0.000000
